REMARK  4 active torsions:
REMARK  status: ('A' for Active; 'I' for Inactive)
REMARK    1  A    between atoms: C2_2  and  S4_4 
REMARK    2  A    between atoms: C2_2  and  C5_5 
REMARK    3  A    between atoms: C5_5  and  N7_6 
REMARK    4  A    between atoms: C5_5  and  C11_10 
ROOT
ATOM      1  C5  ZIN AC000       0.718  -0.497  -1.257  0.00  0.00     0.300 C 
ENDROOT
BRANCH   1   2
ATOM      2  C2  ZIN AC000       0.002  -0.004   0.002  0.00  0.00     0.036 C 
ATOM      3  C1  ZIN AC000      -0.019   1.526   0.010  0.00  0.00     0.029 C 
ATOM      4  C3  ZIN AC000       0.742  -0.511   1.242  0.00  0.00     0.029 C 
BRANCH   2   5
ATOM      5  S4  ZIN AC000      -1.700  -0.632   0.015  0.00  0.00    -0.170 SA
ATOM      6  H20 ZIN AC000      -2.200  -0.128   1.157  0.00  0.00     0.102 HD
ENDBRANCH   2   5
ENDBRANCH   1   2
BRANCH   1   7
ATOM      7  N7  ZIN AC000       0.080   0.086  -2.444  0.00  0.00    -0.064 N 
ATOM      8  H8  ZIN AC000       0.552  -0.239  -3.274  0.00  0.00     0.275 HD
ATOM      9  H9  ZIN AC000      -0.889  -0.194  -2.477  0.00  0.00     0.275 HD
ATOM     10  H10 ZIN AC000       0.138   1.092  -2.397  0.00  0.00     0.275 HD
ENDBRANCH   1   7
BRANCH   1  11
ATOM     11  C11 ZIN AC000       2.165  -0.079  -1.208  0.00  0.00     0.206 C 
ATOM     12  O12 ZIN AC000       2.923  -0.599  -0.406  0.00  0.00    -0.646 OA
ATOM     13  O13 ZIN AC000       2.578   0.778  -1.970  0.00  0.00    -0.646 OA
ENDBRANCH   1  11
TORSDOF 4
