REMARK  9 active torsions:
REMARK  status: ('A' for Active; 'I' for Inactive)
REMARK    1  A    between atoms: N1_1  and  C5_5 
REMARK    2  A    between atoms: C5_5  and  C7_6 
REMARK    3  A    between atoms: C5_5  and  C21_20 
REMARK    4  A    between atoms: C7_6  and  C8_7 
REMARK    5  A    between atoms: C11_10  and  N12_11 
REMARK    6  A    between atoms: N12_11  and  C13_12 
REMARK    7  A    between atoms: N12_11  and  C16_15 
REMARK    8  A    between atoms: C13_12  and  C14_13 
REMARK    9  A    between atoms: C16_15  and  C17_16 
ROOT
ATOM      1  C8  ZIN AC000       1.156   3.166   0.008  0.00  0.00    -0.056 A 
ATOM      2  C9  ZIN AC000       1.173   1.783   0.000  0.00  0.00     0.009 A 
ATOM      3  C10 ZIN AC000      -0.013   1.076   0.008  0.00  0.00     0.030 A 
ATOM      4  C11 ZIN AC000      -1.224   1.755   0.017  0.00  0.00     0.030 A 
ATOM      5  C19 ZIN AC000      -1.239   3.144   0.031  0.00  0.00     0.030 A 
ATOM      6  C20 ZIN AC000      -0.049   3.845   0.024  0.00  0.00     0.009 A 
ENDROOT
BRANCH   1   7
ATOM      7  C7  ZIN AC000       2.452   3.935  -0.000  0.00  0.00     0.082 C 
BRANCH   7   8
ATOM      8  C5  ZIN AC000       2.877   4.203  -1.445  0.00  0.00     0.287 C 
BRANCH   8   9
ATOM      9  N1  ZIN AC000       3.176   2.928  -2.112  0.00  0.00    -0.065 N 
ATOM     10  H2  ZIN AC000       3.925   2.461  -1.623  0.00  0.00     0.275 HD
ATOM     11  H3  ZIN AC000       2.354   2.344  -2.106  0.00  0.00     0.275 HD
ATOM     12  H4  ZIN AC000       3.457   3.105  -3.065  0.00  0.00     0.275 HD
ENDBRANCH   8   9
BRANCH   8  13
ATOM     13  C21 ZIN AC000       4.105   5.075  -1.454  0.00  0.00     0.204 C 
ATOM     14  O22 ZIN AC000       5.214   4.567  -1.438  0.00  0.00    -0.646 OA
ATOM     15  O23 ZIN AC000       3.991   6.289  -1.478  0.00  0.00    -0.646 OA
ENDBRANCH   8  13
ENDBRANCH   7   8
ENDBRANCH   1   7
BRANCH   4  16
ATOM     16  N12 ZIN AC000      -2.426   1.042   0.019  0.00  0.00    -0.379 N 
BRANCH  16  17
ATOM     17  C13 ZIN AC000      -3.703   1.760   0.029  0.00  0.00     0.138 C 
BRANCH  17  18
ATOM     18  C14 ZIN AC000      -4.154   2.018  -1.410  0.00  0.00     0.134 C 
ATOM     19 Cl15 ZIN AC000      -5.726   2.901  -1.398  0.00  0.00    -0.129 Cl
ENDBRANCH  17  18
ENDBRANCH  16  17
BRANCH  16  20
ATOM     20  C16 ZIN AC000      -2.409  -0.422   0.011  0.00  0.00     0.138 C 
BRANCH  20  21
ATOM     21  C17 ZIN AC000      -2.396  -0.940   1.451  0.00  0.00     0.134 C 
ATOM     22 Cl18 ZIN AC000      -2.375  -2.743   1.441  0.00  0.00    -0.129 Cl
ENDBRANCH  20  21
ENDBRANCH  16  20
ENDBRANCH   4  16
TORSDOF 9
