REMARK  2 active torsions:
REMARK  status: ('A' for Active; 'I' for Inactive)
REMARK    1  A    between atoms: C8_8  and  N9_9 
REMARK       I    between atoms: N9_9  and  C10_10 
REMARK    2  A    between atoms: C10_10  and  C12_12 
ROOT
ATOM      1  N9  <0> d           0.107  -0.707   2.430  0.00  0.00    -0.324 N 
ATOM      2  C10 <0> d           0.141   0.636   2.542  0.00  0.00     0.253 C 
ATOM      3  O11 <0> d           0.314   1.323   1.558  0.00  0.00    -0.271 OA
ATOM      4  H30 <0> d           0.049  -1.259   3.225  0.00  0.00     0.169 HD
ENDROOT
BRANCH   1   5
ATOM      5  C8  <0> d           0.155  -1.304   1.165  0.00  0.00     0.046 A 
ATOM      6  C2  <0> d          -0.823  -2.215   0.788  0.00  0.00    -0.035 A 
ATOM      7  C1  <0> d          -1.942  -2.557   1.738  0.00  0.00     0.050 C 
ATOM      8  C3  <0> d          -0.773  -2.802  -0.461  0.00  0.00     0.009 A 
ATOM      9  C4  <0> d           0.253  -2.488  -1.333  0.00  0.00     0.001 A 
ATOM     10  C5  <0> d           1.232  -1.586  -0.959  0.00  0.00     0.009 A 
ATOM     11  C6  <0> d           1.187  -0.995   0.289  0.00  0.00    -0.035 A 
ATOM     12  C7  <0> d           2.254  -0.012   0.696  0.00  0.00     0.050 C 
ENDBRANCH   1   5
BRANCH   2  13
ATOM     13  C12 <0> d          -0.036   1.283   3.892  0.00  0.00     0.279 C 
ATOM     14  N18 <0> d          -0.655   2.604   3.723  0.00  0.00    -0.062 N 
ATOM     15  C17 <0> d          -0.902   3.210   5.037  0.00  0.00     0.235 C 
ATOM     16  H19 <0> d          -0.038   3.198   3.190  0.00  0.00     0.280 HD
ATOM     17  C20 <0> d          -1.929   2.456   3.006  0.00  0.00     0.270 C 
ATOM     18  C16 <0> d           0.430   3.439   5.754  0.00  0.00     0.028 C 
ATOM     19  C15 <0> d           1.144   2.096   5.936  0.00  0.00     0.004 C 
ATOM     20  C14 <0> d           1.329   1.438   4.565  0.00  0.00     0.043 C 
ENDBRANCH   2  13
TORSDOF 2
