REMARK  6 active torsions:
REMARK  status: ('A' for Active; 'I' for Inactive)
REMARK    1  A    between atoms: O1_1  and  C2_2 
REMARK    2  A    between atoms: C2_2  and  C3_3 
REMARK    3  A    between atoms: C2_2  and  C9_9 
REMARK    4  A    between atoms: C2_2  and  C15_15 
REMARK    5  A    between atoms: C3_3  and  N4_4 
REMARK    6  A    between atoms: C9_9  and  N10_10 
ROOT
ATOM      1  C2  ZIN AC000       0.126   0.039  -0.348  0.00  0.00     0.124 C 
ENDROOT
BRANCH   1   2
ATOM      2  O1  ZIN AC000       0.253   1.456  -0.483  0.00  0.00    -0.381 OA
ATOM      3  H23 ZIN AC000       1.165   1.761  -0.591  0.00  0.00     0.211 HD
ENDBRANCH   1   2
BRANCH   1   4
ATOM      4  C3  ZIN AC000      -1.351  -0.327  -0.186  0.00  0.00     0.197 C 
BRANCH   4   5
ATOM      5  N4  ZIN AC000      -2.096   0.113  -1.368  0.00  0.00    -0.259 N 
ATOM      6  N8  ZIN AC000      -2.170   1.419  -1.879  0.00  0.00    -0.165 NA
ATOM      7  C7  ZIN AC000      -2.934   1.368  -2.938  0.00  0.00     0.256 A 
ATOM      8  N6  ZIN AC000      -3.346   0.113  -3.114  0.00  0.00    -0.234 NA
ATOM      9  C5  ZIN AC000      -2.850  -0.653  -2.176  0.00  0.00     0.230 A 
ENDBRANCH   4   5
ENDBRANCH   1   4
BRANCH   1  10
ATOM     10  C9  ZIN AC000       0.686  -0.644  -1.597  0.00  0.00     0.197 C 
BRANCH  10  11
ATOM     11  N10 ZIN AC000       2.117  -0.352  -1.713  0.00  0.00    -0.259 N 
ATOM     12  N14 ZIN AC000       2.715   0.917  -1.780  0.00  0.00    -0.165 NA
ATOM     13  C13 ZIN AC000       4.004   0.723  -1.875  0.00  0.00     0.256 A 
ATOM     14  N12 ZIN AC000       4.245  -0.587  -1.879  0.00  0.00    -0.234 NA
ATOM     15  C11 ZIN AC000       3.119  -1.246  -1.782  0.00  0.00     0.230 A 
ENDBRANCH  10  11
ENDBRANCH   1  10
BRANCH   1  16
ATOM     16  C15 ZIN AC000       0.894  -0.421   0.864  0.00  0.00     0.018 A 
ATOM     17  C21 ZIN AC000       0.917  -1.764   1.200  0.00  0.00     0.128 A 
ATOM     18  C20 ZIN AC000       1.627  -2.187   2.310  0.00  0.00     0.085 A 
ATOM     19  F22 ZIN AC000       0.256  -2.663   0.438  0.00  0.00    -0.205 F 
ATOM     20  C18 ZIN AC000       2.304  -1.265   3.090  0.00  0.00     0.119 A 
ATOM     21  C17 ZIN AC000       2.275   0.078   2.755  0.00  0.00     0.043 A 
ATOM     22  F19 ZIN AC000       2.992  -1.676   4.178  0.00  0.00    -0.206 F 
ATOM     23  C16 ZIN AC000       1.570   0.498   1.643  0.00  0.00     0.016 A 
ENDBRANCH   1  16
TORSDOF 6
