REMARK  10 active torsions:
REMARK  status: ('A' for Active; 'I' for Inactive)
REMARK    1  A    between atoms: O2_2  and  C3_3 
REMARK    2  A    between atoms: C9_9  and  C10_10 
REMARK       I    between atoms: C10_10  and  N12_12 
REMARK    3  A    between atoms: N12_12  and  C13_13 
REMARK    4  A    between atoms: C13_13  and  C14_14 
REMARK    5  A    between atoms: C14_14  and  C15_15 
REMARK    6  A    between atoms: C18_18  and  S19_19 
REMARK    7  A    between atoms: S19_19  and  N22_22 
REMARK    8  A    between atoms: C23_23  and  O24_24 
REMARK    9  A    between atoms: C23_23  and  N25_25 
REMARK   10  A    between atoms: N25_25  and  C26_26 
ROOT
ATOM      1  C15 ZIN AC000      -0.878  -7.297  -1.766  0.00  0.00    -0.057 A 
ATOM      2  C16 ZIN AC000      -2.197  -7.698  -1.661  0.00  0.00     0.009 A 
ATOM      3  C17 ZIN AC000      -2.770  -8.460  -2.663  0.00  0.00     0.026 A 
ATOM      4  C18 ZIN AC000      -2.024  -8.820  -3.769  0.00  0.00     0.081 A 
ATOM      5  C32 ZIN AC000      -0.706  -8.417  -3.875  0.00  0.00     0.026 A 
ATOM      6  C33 ZIN AC000      -0.134  -7.652  -2.876  0.00  0.00     0.009 A 
ENDROOT
BRANCH   1   7
ATOM      7  C14 ZIN AC000      -0.254  -6.466  -0.675  0.00  0.00     0.058 C 
BRANCH   7   8
ATOM      8  C13 ZIN AC000      -0.469  -4.982  -0.977  0.00  0.00     0.127 C 
BRANCH   8   9
ATOM      9  N12 ZIN AC000       0.137  -4.175   0.085  0.00  0.00    -0.356 N 
ATOM     10  C10 ZIN AC000       0.072  -2.829   0.029  0.00  0.00     0.254 C 
ATOM     11  O11 ZIN AC000      -0.491  -2.286  -0.901  0.00  0.00    -0.268 OA
ATOM     12  H40 ZIN AC000       0.586  -4.608   0.827  0.00  0.00     0.162 HD
BRANCH  10  13
ATOM     13  C9  ZIN AC000       0.683  -2.017   1.098  0.00  0.00     0.066 A 
ATOM     14  C3  ZIN AC000       0.625  -0.617   1.040  0.00  0.00     0.084 A 
ATOM     15  C4  ZIN AC000       1.202   0.137   2.050  0.00  0.00     0.039 A 
ATOM     16  C5  ZIN AC000       1.835  -0.488   3.106  0.00  0.00     0.026 A 
ATOM     17  C6  ZIN AC000       1.899  -1.871   3.165  0.00  0.00     0.035 A 
ATOM     18 Cl7  ZIN AC000       2.699  -2.643   4.499  0.00  0.00    -0.084 Cl
ATOM     19  C8  ZIN AC000       1.330  -2.637   2.169  0.00  0.00     0.043 A 
BRANCH  14  20
ATOM     20  O2  ZIN AC000       0.002  -0.004   0.002  0.00  0.00    -0.355 OA
ATOM     21  C1  ZIN AC000      -0.017   1.425   0.010  0.00  0.00     0.210 C 
ENDBRANCH  14  20
ENDBRANCH  10  13
ENDBRANCH   8   9
ENDBRANCH   7   8
ENDBRANCH   1   7
BRANCH   4  22
ATOM     22  S19 ZIN AC000      -2.753  -9.791  -5.046  0.00  0.00     0.286 S 
ATOM     23  O20 ZIN AC000      -1.683 -10.444  -5.714  0.00  0.00    -0.198 OA
ATOM     24  O21 ZIN AC000      -3.838 -10.488  -4.449  0.00  0.00    -0.198 OA
BRANCH  22  25
ATOM     25  N22 ZIN AC000      -3.418  -8.742  -6.141  0.00  0.00    -0.117 NA
ATOM     26  C23 ZIN AC000      -4.027  -9.201  -7.195  0.00  0.00     0.251 C 
BRANCH  26  27
ATOM     27  O24 ZIN AC000      -4.118 -10.534  -7.395  0.00  0.00    -0.331 OA
ATOM     28  H47 ZIN AC000      -4.588 -10.779  -8.204  0.00  0.00     0.221 HD
ENDBRANCH  26  27
BRANCH  26  29
ATOM     29  N25 ZIN AC000      -4.579  -8.331  -8.103  0.00  0.00    -0.350 N 
ATOM     30  H48 ZIN AC000      -4.514  -7.374  -7.959  0.00  0.00     0.163 HD
BRANCH  29  31
ATOM     31  C26 ZIN AC000      -5.265  -8.848  -9.290  0.00  0.00     0.085 C 
ATOM     32  C31 ZIN AC000      -5.231  -7.795 -10.399  0.00  0.00     0.025 C 
ATOM     33  C30 ZIN AC000      -5.947  -8.335 -11.638  0.00  0.00     0.002 C 
ATOM     34  C29 ZIN AC000      -7.401  -8.658 -11.286  0.00  0.00     0.000 C 
ATOM     35  C28 ZIN AC000      -7.435  -9.712 -10.177  0.00  0.00     0.002 C 
ATOM     36  C27 ZIN AC000      -6.718  -9.171  -8.938  0.00  0.00     0.025 C 
ENDBRANCH  29  31
ENDBRANCH  26  29
ENDBRANCH  22  25
ENDBRANCH   4  22
TORSDOF 10
