REMARK  7 active torsions:
REMARK  status: ('A' for Active; 'I' for Inactive)
REMARK    1  A    between atoms: O2_2  and  C3_3 
REMARK    2  A    between atoms: C7_7  and  C8_8 
REMARK    3  A    between atoms: C8_8  and  S9_9 
REMARK    4  A    between atoms: S9_9  and  C11_11 
REMARK    5  A    between atoms: C16_16  and  O17_17 
REMARK    6  A    between atoms: O17_17  and  C18_18 
REMARK    7  A    between atoms: C24_24  and  O25_25 
ROOT
ATOM      1  C11 ZIN AC000       0.258  -6.474   3.183  0.00  0.00     0.198 A 
ATOM      2  N12 ZIN AC000      -0.159  -7.295   2.264  0.00  0.00    -0.221 NA
ATOM      3  C13 ZIN AC000       0.222  -8.562   2.576  0.00  0.00     0.086 A 
ATOM      4  C14 ZIN AC000       0.044  -9.800   1.954  0.00  0.00     0.037 A 
ATOM      5  C15 ZIN AC000       0.557 -10.930   2.526  0.00  0.00     0.039 A 
ATOM      6  C16 ZIN AC000       1.258 -10.861   3.726  0.00  0.00     0.077 A 
ATOM      7  C21 ZIN AC000       1.446  -9.645   4.358  0.00  0.00     0.069 A 
ATOM      8  C22 ZIN AC000       0.929  -8.489   3.788  0.00  0.00     0.066 A 
ATOM      9  N23 ZIN AC000       0.940  -7.156   4.144  0.00  0.00    -0.331 N 
ATOM     10  H38 ZIN AC000       1.355  -6.774   4.934  0.00  0.00     0.168 HD
ENDROOT
BRANCH   1  11
ATOM     11  S9  ZIN AC000      -0.013  -4.733   3.179  0.00  0.00     0.092 S 
ATOM     12  O10 ZIN AC000       0.100  -4.389   4.553  0.00  0.00    -0.249 OA
BRANCH  11  13
ATOM     13  C8  ZIN AC000       1.428  -4.098   2.277  0.00  0.00     0.179 C 
BRANCH  13  14
ATOM     14  C7  ZIN AC000       1.342  -2.597   2.187  0.00  0.00     0.082 A 
ATOM     15  N6  ZIN AC000       1.883  -1.854   3.135  0.00  0.00    -0.262 NA
ATOM     16  C5  ZIN AC000       1.834  -0.537   3.102  0.00  0.00     0.120 A 
ATOM     17  C4  ZIN AC000       1.209   0.124   2.062  0.00  0.00     0.059 A 
ATOM     18  C3  ZIN AC000       0.625  -0.618   1.041  0.00  0.00     0.104 A 
ATOM     19  C24 ZIN AC000       0.692  -2.011   1.114  0.00  0.00     0.127 A 
BRANCH  18  20
ATOM     20  O2  ZIN AC000       0.002  -0.004   0.002  0.00  0.00    -0.353 OA
ATOM     21  C1  ZIN AC000      -0.017   1.425   0.010  0.00  0.00     0.210 C 
ENDBRANCH  18  20
BRANCH  19  22
ATOM     22  O25 ZIN AC000       0.137  -2.781   0.140  0.00  0.00    -0.351 OA
ATOM     23  C26 ZIN AC000      -1.224  -3.178   0.324  0.00  0.00     0.210 C 
ENDBRANCH  19  22
ENDBRANCH  13  14
ENDBRANCH  11  13
ENDBRANCH   1  11
BRANCH   6  24
ATOM     24  O17 ZIN AC000       1.762 -11.996   4.281  0.00  0.00    -0.290 OA
BRANCH  24  25
ATOM     25  C18 ZIN AC000       1.534 -13.219   3.578  0.00  0.00     0.505 C 
ATOM     26  F19 ZIN AC000       0.158 -13.438   3.458  0.00  0.00    -0.184 F 
ATOM     27  F20 ZIN AC000       2.106 -13.137   2.303  0.00  0.00    -0.184 F 
ENDBRANCH  24  25
ENDBRANCH   6  24
TORSDOF 7
