REMARK  7 active torsions:
REMARK  status: ('A' for Active; 'I' for Inactive)
REMARK    1  A    between atoms: O2_2  and  C3_3 
REMARK    2  A    between atoms: C6_6  and  C7_7 
REMARK    3  A    between atoms: C7_7  and  N8_8 
REMARK    4  A    between atoms: N8_8  and  C9_9 
REMARK    5  A    between atoms: N8_8  and  C14_14 
REMARK    6  A    between atoms: C9_9  and  C10_10 
REMARK    7  A    between atoms: C10_10  and  N11_11 
ROOT
ATOM      1  N8  ZIN AC000       1.650  -2.689   5.428  0.00  0.00    -0.360 N 
ENDROOT
BRANCH   1   2
ATOM      2  C7  ZIN AC000       2.485  -2.505   4.238  0.00  0.00     0.163 C 
BRANCH   2   3
ATOM      3  C6  ZIN AC000       1.616  -2.111   3.072  0.00  0.00    -0.040 A 
ATOM      4  C5  ZIN AC000       1.459  -0.776   2.749  0.00  0.00     0.011 A 
ATOM      5  C4  ZIN AC000       0.663  -0.412   1.679  0.00  0.00     0.037 A 
ATOM      6  C3  ZIN AC000       0.021  -1.387   0.930  0.00  0.00     0.068 A 
ATOM      7  C21 ZIN AC000       0.176  -2.726   1.260  0.00  0.00     0.037 A 
ATOM      8  C20 ZIN AC000       0.977  -3.085   2.327  0.00  0.00     0.011 A 
BRANCH   6   9
ATOM      9  O2  ZIN AC000      -0.762  -1.032  -0.122  0.00  0.00    -0.356 OA
ATOM     10  C1  ZIN AC000      -0.875   0.365  -0.404  0.00  0.00     0.210 C 
ENDBRANCH   6   9
ENDBRANCH   2   3
ENDBRANCH   1   2
BRANCH   1  11
ATOM     11  C9  ZIN AC000       0.998  -3.978   5.673  0.00  0.00     0.155 C 
BRANCH  11  12
ATOM     12  C10 ZIN AC000       1.926  -4.870   6.500  0.00  0.00     0.291 C 
BRANCH  12  13
ATOM     13  N11 ZIN AC000       1.272  -6.162   6.746  0.00  0.00     0.081 N 
ATOM     14  C12 ZIN AC000       1.093  -6.909   5.493  0.00  0.00     0.309 C 
ATOM     15  C13 ZIN AC000       2.023  -6.955   7.729  0.00  0.00     0.309 C 
ENDBRANCH  12  13
ENDBRANCH  11  12
ENDBRANCH   1  11
BRANCH   1  16
ATOM     16  C14 ZIN AC000       1.478  -1.641   6.325  0.00  0.00     0.125 A 
ATOM     17  N19 ZIN AC000       0.788  -1.837   7.439  0.00  0.00    -0.244 NA
ATOM     18  C18 ZIN AC000       0.605  -0.870   8.318  0.00  0.00     0.119 A 
ATOM     19  C17 ZIN AC000       1.121   0.392   8.101  0.00  0.00     0.019 A 
ATOM     20  C16 ZIN AC000       1.846   0.640   6.943  0.00  0.00     0.005 A 
ATOM     21  C15 ZIN AC000       2.026  -0.394   6.042  0.00  0.00     0.050 A 
ENDBRANCH   1  16
TORSDOF 7
