REMARK  1 active torsions:
REMARK  status: ('A' for Active; 'I' for Inactive)
REMARK    1  A    between atoms: C6_6  and  C8_7 
ROOT
ATOM      1  C1  ZIN AC000      -0.018   1.465   0.010  0.00  0.00     0.310 C 
ATOM      2  N2  ZIN AC000       0.002  -0.004   0.002  0.00  0.00     0.093 N 
ATOM      3  C3  ZIN AC000      -1.372  -0.556   0.123  0.00  0.00     0.273 C 
ATOM      4  C4  ZIN AC000      -1.168  -1.998   0.635  0.00  0.00     0.033 C 
ATOM      5  C5  ZIN AC000       0.204  -1.983   1.339  0.00  0.00     0.042 C 
ATOM      6  C6  ZIN AC000       0.714  -0.533   1.194  0.00  0.00     0.257 C 
ENDROOT
BRANCH   6   7
ATOM      7  C8  ZIN AC000       2.204  -0.521   0.967  0.00  0.00    -0.008 A 
ATOM      8  C13 ZIN AC000       2.723  -0.776  -0.288  0.00  0.00     0.125 A 
ATOM      9  N12 ZIN AC000       4.026  -0.762  -0.495  0.00  0.00    -0.273 NA
ATOM     10  C11 ZIN AC000       4.880  -0.517   0.480  0.00  0.00     0.116 A 
ATOM     11  C10 ZIN AC000       4.434  -0.258   1.762  0.00  0.00     0.020 A 
ATOM     12  C9  ZIN AC000       3.071  -0.258   2.017  0.00  0.00     0.012 A 
ENDBRANCH   6   7
TORSDOF 1
