REMARK  6 active torsions:
REMARK  status: ('A' for Active; 'I' for Inactive)
REMARK    1  A    between atoms: O2_2  and  C3_3 
REMARK    2  A    between atoms: C7_7  and  C8_8 
REMARK    3  A    between atoms: C9_9  and  C10_10 
REMARK    4  A    between atoms: C12_12  and  C13_13 
REMARK    5  A    between atoms: C14_14  and  C15_15 
REMARK    6  A    between atoms: C17_17  and  C18_18 
ROOT
ATOM      1  C8  ZIN AC000       3.352  -1.728  -4.254  0.00  0.00     0.013 C 
ATOM      2  C9  ZIN AC000       2.940  -1.432  -5.513  0.00  0.00     0.007 C 
ENDROOT
BRANCH   1   3
ATOM      3  C7  ZIN AC000       2.742  -1.051  -3.103  0.00  0.00    -0.024 A 
ATOM      4  C5  ZIN AC000       1.358  -1.126  -2.897  0.00  0.00    -0.049 A 
ATOM      5  C4  ZIN AC000       0.791  -0.489  -1.816  0.00  0.00     0.044 A 
ATOM      6  C6  ZIN AC000       0.492  -1.902  -3.855  0.00  0.00     0.049 C 
ATOM      7  C3  ZIN AC000       1.589   0.228  -0.931  0.00  0.00     0.075 A 
ATOM      8  C23 ZIN AC000       2.962   0.310  -1.135  0.00  0.00    -0.022 A 
ATOM      9  C21 ZIN AC000       3.541  -0.327  -2.208  0.00  0.00    -0.043 A 
ATOM     10  C24 ZIN AC000       3.820   1.089  -0.171  0.00  0.00     0.052 C 
ATOM     11  C22 ZIN AC000       5.029  -0.242  -2.424  0.00  0.00     0.049 C 
BRANCH   7  12
ATOM     12  O2  ZIN AC000       1.024   0.854   0.134  0.00  0.00    -0.355 OA
ATOM     13  C1  ZIN AC000      -0.391   0.728   0.284  0.00  0.00     0.210 C 
ENDBRANCH   7  12
ENDBRANCH   1   3
BRANCH   2  14
ATOM     14  C10 ZIN AC000       3.450  -2.151  -6.608  0.00  0.00    -0.062 C 
ATOM     15  C11 ZIN AC000       4.455  -3.252  -6.383  0.00  0.00     0.048 C 
ATOM     16  C12 ZIN AC000       3.036  -1.853  -7.873  0.00  0.00     0.007 C 
BRANCH  16  17
ATOM     17  C13 ZIN AC000       3.545  -2.571  -8.964  0.00  0.00     0.001 C 
ATOM     18  C14 ZIN AC000       3.126  -2.270 -10.242  0.00  0.00     0.007 C 
BRANCH  18  19
ATOM     19  C15 ZIN AC000       3.635  -2.987 -11.332  0.00  0.00    -0.056 C 
ATOM     20  C16 ZIN AC000       4.639  -4.087 -11.107  0.00  0.00     0.048 C 
ATOM     21  C17 ZIN AC000       3.216  -2.686 -12.609  0.00  0.00     0.091 C 
BRANCH  21  22
ATOM     22  C18 ZIN AC000       3.600  -3.503 -13.684  0.00  0.00     0.199 C 
ATOM     23  O19 ZIN AC000       4.296  -4.619 -13.458  0.00  0.00    -0.644 OA
ATOM     24  O20 ZIN AC000       3.271  -3.163 -14.931  0.00  0.00    -0.644 OA
ENDBRANCH  21  22
ENDBRANCH  18  19
ENDBRANCH  16  17
ENDBRANCH   2  14
TORSDOF 6
