REMARK  5 active torsions:
REMARK  status: ('A' for Active; 'I' for Inactive)
REMARK    1  A    between atoms: N1_1  and  C5_5 
REMARK    2  A    between atoms: C5_5  and  C6_6 
REMARK    3  A    between atoms: C6_6  and  C8_7 
REMARK    4  A    between atoms: C6_6  and  C12_11 
REMARK    5  A    between atoms: C8_7  and  C9_8 
ROOT
ATOM      1  C6  ZIN AC000      -0.025   1.087   2.506  0.00  0.00     0.054 C 
ENDROOT
BRANCH   1   2
ATOM      2  C5  ZIN AC000      -0.764   1.640   1.285  0.00  0.00     0.239 C 
BRANCH   2   3
ATOM      3  N1  ZIN AC000      -2.004   0.880   1.077  0.00  0.00    -0.079 N 
ATOM      4  H2  ZIN AC000      -2.559   0.906   1.919  0.00  0.00     0.274 HD
ATOM      5  H3  ZIN AC000      -1.778  -0.077   0.853  0.00  0.00     0.274 HD
ATOM      6  H4  ZIN AC000      -2.525   1.290   0.317  0.00  0.00     0.274 HD
ENDBRANCH   2   3
ENDBRANCH   1   2
BRANCH   1   7
ATOM      7  C8  ZIN AC000       1.329   1.786   2.643  0.00  0.00     0.124 C 
BRANCH   7   8
ATOM      8  C9  ZIN AC000       2.206   1.416   1.475  0.00  0.00     0.173 C 
ATOM      9  O10 ZIN AC000       1.832   0.577   0.673  0.00  0.00    -0.648 OA
ATOM     10  O11 ZIN AC000       3.291   1.954   1.333  0.00  0.00    -0.648 OA
ENDBRANCH   7   8
ENDBRANCH   1   7
BRANCH   1  11
ATOM     11  C12 ZIN AC000      -0.847   1.334   3.745  0.00  0.00    -0.052 A 
ATOM     12  C18 ZIN AC000      -1.272   0.268   4.515  0.00  0.00     0.009 A 
ATOM     13  C17 ZIN AC000      -2.021   0.495   5.655  0.00  0.00     0.024 A 
ATOM     14  C15 ZIN AC000      -2.353   1.788   6.018  0.00  0.00     0.034 A 
ATOM     15  C14 ZIN AC000      -1.932   2.853   5.243  0.00  0.00     0.024 A 
ATOM     16 Cl16 ZIN AC000      -3.300   2.072   7.445  0.00  0.00    -0.084 Cl
ATOM     17  C13 ZIN AC000      -1.179   2.626   4.107  0.00  0.00     0.009 A 
ENDBRANCH   1  11
TORSDOF 5
