REMARK  14 active torsions:
REMARK  status: ('A' for Active; 'I' for Inactive)
REMARK    1  A    between atoms: C2_2  and  C4_4 
REMARK    2  A    between atoms: C5_5  and  C6_6 
REMARK       I    between atoms: C6_6  and  N8_8 
REMARK    3  A    between atoms: N8_8  and  C9_9 
REMARK    4  A    between atoms: C15_15  and  C16_16 
REMARK    5  A    between atoms: C22_22  and  C23_23 
REMARK    6  A    between atoms: N30_30  and  C31_31 
REMARK    7  A    between atoms: C31_31  and  C32_32 
REMARK    8  A    between atoms: C32_32  and  C33_33 
REMARK    9  A    between atoms: C33_33  and  O35_34 
REMARK   10  A    between atoms: C33_33  and  C36_35 
REMARK   11  A    between atoms: C36_35  and  C37_36 
REMARK   12  A    between atoms: C37_36  and  O39_37 
REMARK   13  A    between atoms: C37_36  and  C40_38 
REMARK   14  A    between atoms: C40_38  and  C41_39 
ROOT
ATOM      1  C4  ZIN AC000      -1.478  -0.494  -0.281  0.00  0.00     0.032 A 
ATOM      2  C5  ZIN AC000      -2.133  -0.278   0.899  0.00  0.00     0.068 A 
ATOM      3  C15 ZIN AC000      -3.416  -0.991   0.797  0.00  0.00     0.020 A 
ATOM      4  C22 ZIN AC000      -3.421  -1.582  -0.451  0.00  0.00     0.057 A 
ATOM      5  N30 ZIN AC000      -2.245  -1.261  -1.080  0.00  0.00    -0.347 N 
ENDROOT
BRANCH   5   6
ATOM      6  C31 ZIN AC000      -1.872  -1.700  -2.427  0.00  0.00     0.132 C 
BRANCH   6   7
ATOM      7  C32 ZIN AC000      -2.257  -0.619  -3.439  0.00  0.00     0.052 C 
BRANCH   7   8
ATOM      8  C33 ZIN AC000      -1.983  -1.128  -4.856  0.00  0.00     0.122 C 
BRANCH   8   9
ATOM      9  O35 ZIN AC000      -0.578  -1.325  -5.029  0.00  0.00    -0.395 OA
ATOM     10  H70 ZIN AC000      -0.051  -0.523  -4.906  0.00  0.00     0.210 HD
ENDBRANCH   8   9
BRANCH   8  11
ATOM     11  C36 ZIN AC000      -2.483  -0.099  -5.873  0.00  0.00     0.064 C 
BRANCH  11  12
ATOM     12  C37 ZIN AC000      -2.323  -0.661  -7.287  0.00  0.00     0.130 C 
BRANCH  12  13
ATOM     13  O39 ZIN AC000      -3.176  -1.796  -7.448  0.00  0.00    -0.395 OA
ATOM     14  H73 ZIN AC000      -4.115  -1.604  -7.322  0.00  0.00     0.210 HD
ENDBRANCH  12  13
BRANCH  12  15
ATOM     15  C40 ZIN AC000      -2.705   0.413  -8.308  0.00  0.00     0.144 C 
BRANCH  15  16
ATOM     16  C41 ZIN AC000      -2.431  -0.097  -9.700  0.00  0.00     0.175 C 
ATOM     17  O42 ZIN AC000      -1.973  -1.216  -9.860  0.00  0.00    -0.648 OA
ATOM     18  O43 ZIN AC000      -2.668   0.608 -10.665  0.00  0.00    -0.648 OA
ENDBRANCH  15  16
ENDBRANCH  12  15
ENDBRANCH  11  12
ENDBRANCH   8  11
ENDBRANCH   7   8
ENDBRANCH   6   7
ENDBRANCH   5   6
BRANCH   1  19
ATOM     19  C2  ZIN AC000      -0.116   0.044  -0.636  0.00  0.00     0.028 C 
ATOM     20  C1  ZIN AC000      -0.144   1.573  -0.587  0.00  0.00     0.016 C 
ATOM     21  C3  ZIN AC000       0.916  -0.479   0.365  0.00  0.00     0.016 C 
ENDBRANCH   1  19
BRANCH   4  22
ATOM     22  C23 ZIN AC000      -4.507  -2.410  -1.014  0.00  0.00    -0.008 A 
ATOM     23  C29 ZIN AC000      -4.235  -3.697  -1.483  0.00  0.00     0.017 A 
ATOM     24  C28 ZIN AC000      -5.254  -4.467  -2.004  0.00  0.00     0.043 A 
ATOM     25  C26 ZIN AC000      -6.543  -3.963  -2.071  0.00  0.00     0.116 A 
ATOM     26  C25 ZIN AC000      -6.817  -2.684  -1.612  0.00  0.00     0.043 A 
ATOM     27  F27 ZIN AC000      -7.536  -4.720  -2.587  0.00  0.00    -0.206 F 
ATOM     28  C24 ZIN AC000      -5.807  -1.906  -1.085  0.00  0.00     0.017 A 
ENDBRANCH   4  22
BRANCH   2  29
ATOM     29  C6  ZIN AC000      -1.650   0.512   2.043  0.00  0.00     0.259 C 
ATOM     30  O7  ZIN AC000      -1.899   1.701   2.109  0.00  0.00    -0.267 OA
ATOM     31  N8  ZIN AC000      -0.934  -0.082   3.017  0.00  0.00    -0.323 N 
ATOM     32  H51 ZIN AC000      -0.792  -1.042   2.999  0.00  0.00     0.169 HD
BRANCH  31  33
ATOM     33  C9  ZIN AC000      -0.394   0.685   4.055  0.00  0.00     0.035 A 
ATOM     34  C14 ZIN AC000      -1.091   1.782   4.545  0.00  0.00     0.029 A 
ATOM     35  C13 ZIN AC000      -0.558   2.534   5.573  0.00  0.00     0.002 A 
ATOM     36  C12 ZIN AC000       0.673   2.202   6.108  0.00  0.00     0.000 A 
ATOM     37  C11 ZIN AC000       1.373   1.114   5.619  0.00  0.00     0.002 A 
ATOM     38  C10 ZIN AC000       0.842   0.354   4.594  0.00  0.00     0.029 A 
ENDBRANCH  31  33
ENDBRANCH   2  29
BRANCH   3  39
ATOM     39  C16 ZIN AC000      -4.483  -1.060   1.822  0.00  0.00    -0.023 A 
ATOM     40  C21 ZIN AC000      -5.186   0.091   2.179  0.00  0.00     0.012 A 
ATOM     41  C20 ZIN AC000      -6.183   0.019   3.131  0.00  0.00     0.001 A 
ATOM     42  C19 ZIN AC000      -6.477  -1.189   3.739  0.00  0.00     0.000 A 
ATOM     43  C18 ZIN AC000      -5.779  -2.333   3.392  0.00  0.00     0.001 A 
ATOM     44  C17 ZIN AC000      -4.785  -2.275   2.438  0.00  0.00     0.012 A 
ENDBRANCH   3  39
TORSDOF 14
