REMARK  2 active torsions:
REMARK  status: ('A' for Active; 'I' for Inactive)
REMARK    1  A    between atoms: O1_1  and  C2_2 
REMARK    2  A    between atoms: C5_5  and  O6_6 
ROOT
ATOM      1  C2  <0> d           0.002  -0.004   0.002  0.00  0.00     0.065 A 
ATOM      2  C3  <0> d           0.006  -0.691  -1.203  0.00  0.00     0.039 A 
ATOM      3  C4  <0> d           0.025  -2.072  -1.210  0.00  0.00     0.039 A 
ATOM      4  C5  <0> d           0.040  -2.772  -0.013  0.00  0.00     0.065 A 
ATOM      5  C7  <0> d           0.038  -2.085   1.192  0.00  0.00     0.039 A 
ATOM      6  C8  <0> d           0.023  -0.704   1.199  0.00  0.00     0.039 A 
ENDROOT
BRANCH   1   7
ATOM      7  O1  <0> d          -0.016   1.356   0.009  0.00  0.00    -0.361 OA
ATOM      8  H9  <0> d           0.862   1.761   0.003  0.00  0.00     0.217 HD
ENDBRANCH   1   7
BRANCH   4   9
ATOM      9  O6  <0> d           0.058  -4.132  -0.021  0.00  0.00    -0.361 OA
ATOM     10  H12 <0> d           0.947  -4.513  -0.028  0.00  0.00     0.217 HD
ENDBRANCH   4   9
TORSDOF 2
