REMARK  7 active torsions:
REMARK  status: ('A' for Active; 'I' for Inactive)
REMARK    1  A    between atoms: C2_2  and  C3_3 
REMARK    2  A    between atoms: C3_3  and  C4_4 
REMARK    3  A    between atoms: C4_4  and  C5_5 
REMARK    4  A    between atoms: C5_5  and  C6_6 
REMARK    5  A    between atoms: C6_6  and  C7_7 
REMARK    6  A    between atoms: C10_10  and  O11_11 
REMARK    7  A    between atoms: C13_13  and  O14_14 
ROOT
ATOM      1  C7  <0> d          -4.241  -4.644   0.018  0.00  0.00    -0.025 A 
ATOM      2  C8  <0> d          -4.843  -4.982   1.214  0.00  0.00     0.012 A 
ATOM      3  C9  <0> d          -6.140  -5.460   1.228  0.00  0.00     0.037 A 
ATOM      4  C10 <0> d          -6.840  -5.603   0.038  0.00  0.00     0.068 A 
ATOM      5  C12 <0> d          -6.238  -5.264  -1.164  0.00  0.00     0.073 A 
ATOM      6  C13 <0> d          -4.939  -4.780  -1.174  0.00  0.00     0.074 A 
ENDROOT
BRANCH   1   7
ATOM      7  C6  <0> d          -2.827  -4.123   0.007  0.00  0.00     0.041 C 
BRANCH   7   8
ATOM      8  C5  <0> d          -2.848  -2.593   0.015  0.00  0.00     0.005 C 
BRANCH   8   9
ATOM      9  C4  <0> d          -1.413  -2.063   0.004  0.00  0.00     0.000 C 
BRANCH   9  10
ATOM     10  C3  <0> d          -1.433  -0.534   0.013  0.00  0.00    -0.000 C 
BRANCH  10  11
ATOM     11  C2  <0> d           0.002  -0.004   0.002  0.00  0.00    -0.005 C 
ATOM     12  C1  <0> d          -0.019   1.526   0.010  0.00  0.00     0.005 C 
ENDBRANCH  10  11
ENDBRANCH   9  10
ENDBRANCH   8   9
ENDBRANCH   7   8
ENDBRANCH   1   7
BRANCH   6  13
ATOM     13  O14 <0> d          -4.346  -4.447  -2.351  0.00  0.00    -0.360 OA
ATOM     14  H32 <0> d          -4.482  -3.526  -2.613  0.00  0.00     0.217 HD
ENDBRANCH   6  13
BRANCH   4  15
ATOM     15  O11 <0> d          -8.115  -6.072   0.052  0.00  0.00    -0.361 OA
ATOM     16  H30 <0> d          -8.787  -5.383   0.136  0.00  0.00     0.217 HD
ENDBRANCH   4  15
TORSDOF 7
