REMARK  6 active torsions:
REMARK  status: ('A' for Active; 'I' for Inactive)
REMARK    1  A    between atoms: C5_5  and  C6_6 
REMARK    2  A    between atoms: C6_6  and  C8_7 
REMARK    3  A    between atoms: C6_6  and  O15_14 
REMARK    4  A    between atoms: C8_7  and  N9_8 
REMARK    5  A    between atoms: O15_14  and  C16_15 
REMARK    6  A    between atoms: C16_15  and  C17_16 
ROOT
ATOM      1  C6  ZIN AC000      -0.082   6.004   0.035  0.00  0.00     0.174 C 
ENDROOT
BRANCH   1   2
ATOM      2  C5  ZIN AC000      -0.061   4.497   0.026  0.00  0.00    -0.006 A 
ATOM      3  C4  ZIN AC000      -1.248   3.789   0.040  0.00  0.00     0.013 A 
ATOM      4  C3  ZIN AC000      -1.229   2.407   0.033  0.00  0.00     0.024 A 
ATOM      5  C2  ZIN AC000      -0.021   1.732   0.012  0.00  0.00     0.035 A 
ATOM      6 Cl1  ZIN AC000       0.002  -0.004   0.002  0.00  0.00    -0.084 Cl
ATOM      7  C29 ZIN AC000       1.167   2.440   0.004  0.00  0.00     0.048 A 
ATOM      8  C27 ZIN AC000       1.147   3.823   0.006  0.00  0.00     0.044 A 
ATOM      9 Cl28 ZIN AC000       2.638   4.712  -0.011  0.00  0.00    -0.084 Cl
ENDBRANCH   1   2
BRANCH   1  10
ATOM     10  C8  ZIN AC000       0.057   6.508   1.472  0.00  0.00     0.166 C 
BRANCH  10  11
ATOM     11  N9  ZIN AC000       0.156   7.970   1.470  0.00  0.00    -0.349 N 
ATOM     12  C14 ZIN AC000      -0.871   8.843   1.547  0.00  0.00     0.182 A 
ATOM     13  N12 ZIN AC000      -0.392  10.056   1.519  0.00  0.00    -0.361 N 
ATOM     14  C11 ZIN AC000       0.944  10.002   1.415  0.00  0.00     0.106 A 
ATOM     15  H13 ZIN AC000      -0.920  10.870   1.562  0.00  0.00     0.166 HD
ATOM     16  C10 ZIN AC000       1.307   8.706   1.383  0.00  0.00     0.108 A 
ENDBRANCH  10  11
ENDBRANCH   1  10
BRANCH   1  17
ATOM     17  O15 ZIN AC000      -1.318   6.466  -0.515  0.00  0.00    -0.375 OA
BRANCH  17  18
ATOM     18  C16 ZIN AC000      -1.225   7.731  -1.173  0.00  0.00     0.208 C 
BRANCH  18  19
ATOM     19  C17 ZIN AC000      -2.578   8.118  -1.711  0.00  0.00    -0.016 A 
ATOM     20  C26 ZIN AC000      -2.807   9.358  -2.435  0.00  0.00    -0.009 A 
ATOM     21  C20 ZIN AC000      -4.139   9.488  -2.835  0.00  0.00     0.037 A 
ATOM     22  C25 ZIN AC000      -1.891  10.377  -2.775  0.00  0.00     0.013 A 
ATOM     23  S19 ZIN AC000      -5.059   8.089  -2.295  0.00  0.00    -0.099 SA
ATOM     24  C21 ZIN AC000      -4.543  10.622  -3.549  0.00  0.00     0.052 A 
ATOM     25  C18 ZIN AC000      -3.646   7.361  -1.556  0.00  0.00     0.060 A 
ATOM     26 Cl22 ZIN AC000      -6.199  10.792  -4.040  0.00  0.00    -0.083 Cl
ATOM     27  C23 ZIN AC000      -3.629  11.602  -3.862  0.00  0.00     0.025 A 
ATOM     28  C24 ZIN AC000      -2.304  11.472  -3.471  0.00  0.00     0.003 A 
ENDBRANCH  18  19
ENDBRANCH  17  18
ENDBRANCH   1  17
TORSDOF 6
