REMARK  8 active torsions:
REMARK  status: ('A' for Active; 'I' for Inactive)
REMARK    1  A    between atoms: C2_2  and  C19_19 
REMARK    2  A    between atoms: C3_3  and  C4_4 
REMARK    3  A    between atoms: C4_4  and  C5_5 
REMARK    4  A    between atoms: C5_5  and  C6_6 
REMARK    5  A    between atoms: C6_6  and  C8_8 
REMARK    6  A    between atoms: C8_8  and  C9_9 
REMARK    7  A    between atoms: C9_9  and  C10_10 
REMARK    8  A    between atoms: C19_19  and  C20_20 
ROOT
ATOM      1  C6  ZIN AC000       0.100   0.454   5.240  0.00  0.00    -0.062 C 
ATOM      2  C7  ZIN AC000      -0.988  -0.024   6.168  0.00  0.00     0.048 C 
ENDROOT
BRANCH   1   3
ATOM      3  C5  ZIN AC000       0.732  -0.432   4.417  0.00  0.00     0.007 C 
BRANCH   3   4
ATOM      4  C4  ZIN AC000       1.655   0.029   3.468  0.00  0.00     0.001 C 
BRANCH   4   5
ATOM      5  C3  ZIN AC000       2.293  -0.864   2.637  0.00  0.00     0.007 C 
ATOM      6  C2  ZIN AC000       3.215  -0.403   1.688  0.00  0.00    -0.056 C 
ATOM      7  C1  ZIN AC000       3.507   1.071   1.577  0.00  0.00     0.048 C 
BRANCH   6   8
ATOM      8  C19 ZIN AC000       3.853  -1.297   0.858  0.00  0.00     0.091 C 
BRANCH   8   9
ATOM      9  C20 ZIN AC000       4.884  -0.856   0.013  0.00  0.00     0.199 C 
ATOM     10  O21 ZIN AC000       5.327   0.399   0.100  0.00  0.00    -0.644 OA
ATOM     11  O22 ZIN AC000       5.421  -1.693  -0.876  0.00  0.00    -0.644 OA
ENDBRANCH   8   9
ENDBRANCH   6   8
ENDBRANCH   4   5
ENDBRANCH   3   4
ENDBRANCH   1   3
BRANCH   1  12
ATOM     12  C8  ZIN AC000       0.462   1.812   5.223  0.00  0.00     0.007 C 
BRANCH  12  13
ATOM     13  C9  ZIN AC000       0.907   2.411   6.359  0.00  0.00     0.009 C 
BRANCH  13  14
ATOM     14  C10 ZIN AC000       1.145   1.636   7.522  0.00  0.00    -0.048 C 
ATOM     15  C16 ZIN AC000       0.324   1.923   8.746  0.00  0.00    -0.020 C 
ATOM     16  C15 ZIN AC000       0.408   0.747   9.723  0.00  0.00     0.014 C 
ATOM     17  C17 ZIN AC000       0.844   3.189   9.430  0.00  0.00     0.020 C 
ATOM     18  C18 ZIN AC000      -1.133   2.136   8.332  0.00  0.00     0.020 C 
ATOM     19  C14 ZIN AC000       1.887   0.393   9.928  0.00  0.00     0.005 C 
ATOM     20  C13 ZIN AC000       2.432  -0.191   8.623  0.00  0.00     0.034 C 
ATOM     21  C11 ZIN AC000       2.082   0.704   7.470  0.00  0.00    -0.077 C 
ATOM     22  C12 ZIN AC000       2.842   0.532   6.180  0.00  0.00     0.044 C 
ENDBRANCH  13  14
ENDBRANCH  12  13
ENDBRANCH   1  12
TORSDOF 8
