REMARK  2 active torsions:
REMARK  status: ('A' for Active; 'I' for Inactive)
REMARK    1  A    between atoms: C22_20  and  C24_21 
REMARK    2  A    between atoms: C33_30  and  C35_31 
ROOT
ATOM      1  C1  ZIN AC000       2.000   4.624  -2.735  0.00  0.00     0.038 C 
ATOM      2  C2  ZIN AC000       1.782   5.781  -1.794  0.00  0.00     0.004 C 
ATOM      3  C3  ZIN AC000       2.688   6.056  -0.858  0.00  0.00     0.099 C 
ATOM      4  N4  ZIN AC000       2.484   7.093   0.082  0.00  0.00    -0.321 N 
ATOM      5  C5  ZIN AC000       1.391   7.882  -0.038  0.00  0.00     0.245 C 
ATOM      6  O6  ZIN AC000       1.164   8.464  -1.081  0.00  0.00    -0.271 OA
ATOM      7  C7  ZIN AC000       0.463   8.082   1.124  0.00  0.00     0.187 C 
ATOM      8  C9  ZIN AC000      -0.944   8.410   0.628  0.00  0.00     0.120 C 
ATOM      9  S10 ZIN AC000      -1.370   7.328  -0.760  0.00  0.00    -0.095 SA
ATOM     10  S11 ZIN AC000      -2.125   5.661   0.169  0.00  0.00    -0.097 SA
ATOM     11  C12 ZIN AC000      -1.803   4.343  -1.037  0.00  0.00     0.090 C 
ATOM     12  C13 ZIN AC000      -2.156   2.992  -0.419  0.00  0.00     0.038 C 
ATOM     13  C14 ZIN AC000      -1.213   2.685   0.721  0.00  0.00    -0.027 C 
ATOM     14  C15 ZIN AC000      -0.307   1.754   0.576  0.00  0.00     0.002 C 
ATOM     15  C16 ZIN AC000       0.623   1.357   1.681  0.00  0.00     0.163 C 
ATOM     16  C18 ZIN AC000       0.211   1.984   3.013  0.00  0.00     0.139 C 
ATOM     17  C19 ZIN AC000       1.104   3.152   3.338  0.00  0.00     0.221 C 
ATOM     18  O20 ZIN AC000       2.250   2.963   3.688  0.00  0.00    -0.273 OA
ATOM     19  N21 ZIN AC000       0.611   4.420   3.259  0.00  0.00    -0.347 N 
ATOM     20  C22 ZIN AC000       1.519   5.495   3.702  0.00  0.00     0.180 C 
ATOM     21  C27 ZIN AC000       1.122   6.798   3.069  0.00  0.00     0.241 C 
ATOM     22  O28 ZIN AC000       1.424   7.840   3.620  0.00  0.00    -0.271 OA
ATOM     23  N29 ZIN AC000       0.433   6.845   1.914  0.00  0.00    -0.345 N 
ATOM     24  O30 ZIN AC000       1.995   1.668   1.371  0.00  0.00    -0.310 OA
ATOM     25  C31 ZIN AC000       2.333   2.815   0.781  0.00  0.00     0.282 C 
ATOM     26  O32 ZIN AC000       1.505   3.665   0.565  0.00  0.00    -0.263 OA
ATOM     27  C33 ZIN AC000       3.765   3.058   0.372  0.00  0.00     0.188 C 
ATOM     28  N38 ZIN AC000       3.828   3.900  -0.824  0.00  0.00    -0.342 N 
ATOM     29  C39 ZIN AC000       3.914   5.237  -0.727  0.00  0.00     0.268 C 
ATOM     30  O40 ZIN AC000       4.965   5.814  -0.571  0.00  0.00    -0.266 OA
ATOM     31  H45 ZIN AC000       3.118   7.239   0.814  0.00  0.00     0.169 HD
ATOM     32  H56 ZIN AC000      -0.281   4.603   2.927  0.00  0.00     0.163 HD
ATOM     33  H64 ZIN AC000      -0.065   6.070   1.598  0.00  0.00     0.163 HD
ATOM     34  H72 ZIN AC000       3.809   3.476  -1.711  0.00  0.00     0.163 HD
ENDROOT
BRANCH  20  35
ATOM     35  C24 ZIN AC000       1.469   5.624   5.228  0.00  0.00     0.009 C 
ATOM     36  C25 ZIN AC000       0.023   5.851   5.673  0.00  0.00     0.012 C 
ATOM     37  C26 ZIN AC000       2.005   4.341   5.866  0.00  0.00     0.012 C 
ENDBRANCH  20  35
BRANCH  27  38
ATOM     38  C35 ZIN AC000       4.517   3.715   1.531  0.00  0.00     0.010 C 
ATOM     39  C36 ZIN AC000       5.986   3.901   1.145  0.00  0.00     0.012 C 
ATOM     40  C37 ZIN AC000       3.894   5.078   1.837  0.00  0.00     0.012 C 
ENDBRANCH  27  38
TORSDOF 2
