REMARK  8 active torsions:
REMARK  status: ('A' for Active; 'I' for Inactive)
REMARK    1  A    between atoms: O2_2  and  C3_3 
REMARK    2  A    between atoms: C3_3  and  C4_4 
REMARK    3  A    between atoms: C4_4  and  C5_5 
REMARK    4  A    between atoms: C5_5  and  O6_6 
REMARK    5  A    between atoms: O6_6  and  C7_7 
REMARK    6  A    between atoms: C11_11  and  C12_12 
REMARK    7  A    between atoms: C12_12  and  S13_13 
REMARK    8  A    between atoms: S13_13  and  C15_15 
ROOT
ATOM      1  C7  <0> d          -3.558  -4.916   0.010  0.00  0.00     0.078 A 
ATOM      2  C8  <0> d          -4.800  -4.287   0.019  0.00  0.00     0.056 A 
ATOM      3  C9  <0> d          -5.944  -5.060   0.026  0.00  0.00     0.119 A 
ATOM      4  N10 <0> d          -5.869  -6.378   0.024  0.00  0.00    -0.264 NA
ATOM      5  C11 <0> d          -4.710  -7.010   0.015  0.00  0.00     0.054 A 
ATOM      6  C24 <0> d          -3.523  -6.308   0.002  0.00  0.00    -0.003 A 
ATOM      7  C25 <0> d          -2.204  -7.039  -0.009  0.00  0.00     0.053 C 
ENDROOT
BRANCH   5   8
ATOM      8  C12 <0> d          -4.685  -8.517   0.013  0.00  0.00     0.177 C 
BRANCH   8   9
ATOM      9  S13 <0> d          -4.686  -9.118  -1.699  0.00  0.00     0.091 S 
ATOM     10  O14 <0> d          -5.961  -8.884  -2.282  0.00  0.00    -0.249 OA
BRANCH   9  11
ATOM     11  C15 <0> d          -4.656 -10.869  -1.503  0.00  0.00     0.198 A 
ATOM     12  N23 <0> d          -5.757 -11.662  -1.409  0.00  0.00    -0.331 N 
ATOM     13  C22 <0> d          -5.316 -12.963  -1.269  0.00  0.00     0.063 A 
ATOM     14  H43 <0> d          -6.681 -11.369  -1.437  0.00  0.00     0.168 HD
ATOM     15  C17 <0> d          -3.912 -12.899  -1.276  0.00  0.00     0.086 A 
ATOM     16  C21 <0> d          -5.950 -14.190  -1.132  0.00  0.00     0.032 A 
ATOM     17  N16 <0> d          -3.576 -11.591  -1.422  0.00  0.00    -0.221 NA
ATOM     18  C18 <0> d          -3.169 -14.075  -1.143  0.00  0.00     0.034 A 
ATOM     19  C19 <0> d          -3.811 -15.274  -1.009  0.00  0.00     0.002 A 
ATOM     20  C20 <0> d          -5.197 -15.338  -1.003  0.00  0.00     0.002 A 
ENDBRANCH   9  11
ENDBRANCH   8   9
ENDBRANCH   5   8
BRANCH   1  21
ATOM     21  O6  <0> d          -2.411  -4.191   0.003  0.00  0.00    -0.350 OA
BRANCH  21  22
ATOM     22  C5  <0> d          -2.543  -2.768   0.011  0.00  0.00     0.178 C 
BRANCH  22  23
ATOM     23  C4  <0> d          -1.154  -2.126   0.002  0.00  0.00     0.053 C 
BRANCH  23  24
ATOM     24  C3  <0> d          -1.295  -0.603   0.011  0.00  0.00     0.169 C 
BRANCH  24  25
ATOM     25  O2  <0> d           0.002  -0.004   0.002  0.00  0.00    -0.396 OA
ATOM     26  C1  <0> d          -0.017   1.425   0.010  0.00  0.00     0.201 C 
ENDBRANCH  24  25
ENDBRANCH  23  24
ENDBRANCH  22  23
ENDBRANCH  21  22
ENDBRANCH   1  21
TORSDOF 8
