REMARK  5 active torsions:
REMARK  status: ('A' for Active; 'I' for Inactive)
REMARK    1  A    between atoms: O2_2  and  C3_3 
REMARK    2  A    between atoms: C31_29  and  O33_30 
REMARK    3  A    between atoms: C37_33  and  O39_34 
REMARK    4  A    between atoms: C43_37  and  O45_38 
REMARK    5  A    between atoms: O45_38  and  C46_39 
ROOT
ATOM      1  C3  ZIN AC000       0.735   0.588  -1.820  0.00  0.00     0.151 C 
ATOM      2  C5  ZIN AC000       2.230   0.738  -1.764  0.00  0.00     0.029 C 
ATOM      3  C6  ZIN AC000       2.841   1.640  -2.506  0.00  0.00     0.137 C 
ATOM      4  O7  ZIN AC000       4.209   1.674  -2.511  0.00  0.00    -0.319 OA
ATOM      5  C8  ZIN AC000       4.794   0.502  -3.043  0.00  0.00     0.237 C 
ATOM      6  C9  ZIN AC000       3.834  -0.191  -4.027  0.00  0.00     0.089 C 
ATOM      7  O10 ZIN AC000       6.051   0.657  -3.741  0.00  0.00    -0.305 OA
ATOM      8  C11 ZIN AC000       6.605  -0.598  -3.654  0.00  0.00     0.097 C 
ATOM      9  C12 ZIN AC000       7.362  -1.317  -4.576  0.00  0.00     0.010 C 
ATOM     10  C13 ZIN AC000       7.770  -0.640  -5.859  0.00  0.00     0.054 C 
ATOM     11  C14 ZIN AC000       7.754  -2.624  -4.363  0.00  0.00     0.130 C 
ATOM     12  O15 ZIN AC000       8.379  -3.306  -5.353  0.00  0.00    -0.190 OA
ATOM     13  C16 ZIN AC000       7.511  -3.257  -3.126  0.00  0.00     0.054 C 
ATOM     14  C17 ZIN AC000       7.738  -4.639  -2.929  0.00  0.00     0.150 C 
ATOM     15  O18 ZIN AC000       7.836  -5.476  -3.996  0.00  0.00    -0.189 OA
ATOM     16  C19 ZIN AC000       7.861  -5.139  -1.625  0.00  0.00     0.102 C 
ATOM     17  N20 ZIN AC000       7.900  -6.504  -1.367  0.00  0.00    -0.319 N 
ATOM     18  C21 ZIN AC000       7.009  -7.299  -1.973  0.00  0.00     0.251 C 
ATOM     19  O22 ZIN AC000       7.039  -7.365  -3.188  0.00  0.00    -0.268 OA
ATOM     20  C23 ZIN AC000       6.013  -8.085  -1.276  0.00  0.00     0.006 C 
ATOM     21  C24 ZIN AC000       6.266  -8.517   0.149  0.00  0.00     0.054 C 
ATOM     22  C25 ZIN AC000       4.825  -8.380  -1.851  0.00  0.00     0.012 C 
ATOM     23  C26 ZIN AC000       4.518  -7.974  -3.218  0.00  0.00    -0.003 C 
ATOM     24  C27 ZIN AC000       3.304  -7.592  -3.587  0.00  0.00    -0.020 C 
ATOM     25  C28 ZIN AC000       2.158  -7.522  -2.613  0.00  0.00     0.033 C 
ATOM     26  C30 ZIN AC000       1.594  -8.925  -2.383  0.00  0.00     0.017 C 
ATOM     27  C31 ZIN AC000       1.066  -6.617  -3.193  0.00  0.00     0.131 C 
ATOM     28  C34 ZIN AC000       0.956  -5.335  -2.372  0.00  0.00     0.040 C 
ATOM     29  C36 ZIN AC000       2.316  -5.018  -1.746  0.00  0.00     0.015 C 
ATOM     30  C37 ZIN AC000       0.530  -4.169  -3.259  0.00  0.00     0.130 C 
ATOM     31  C40 ZIN AC000      -0.197  -3.097  -2.453  0.00  0.00     0.041 C 
ATOM     32  C42 ZIN AC000       0.021  -3.357  -0.961  0.00  0.00     0.015 C 
ATOM     33  C43 ZIN AC000       0.322  -1.702  -2.799  0.00  0.00     0.144 C 
ATOM     34  C49 ZIN AC000       0.345  -0.855  -1.522  0.00  0.00     0.044 C 
ATOM     35  C51 ZIN AC000      -1.046  -0.874  -0.884  0.00  0.00     0.015 C 
ATOM     36  C52 ZIN AC000       7.787  -4.201  -0.558  0.00  0.00     0.100 A 
ATOM     37  C53 ZIN AC000       7.248  -2.914  -0.768  0.00  0.00     0.101 A 
ATOM     38  N54 ZIN AC000       7.222  -2.318   0.442  0.00  0.00    -0.228 NA
ATOM     39  C55 ZIN AC000       7.835  -3.076   1.338  0.00  0.00     0.135 A 
ATOM     40  C56 ZIN AC000       8.170  -2.845   2.688  0.00  0.00     0.057 A 
ATOM     41  C57 ZIN AC000       8.827  -3.808   3.389  0.00  0.00    -0.057 A 
ATOM     42  C58 ZIN AC000       9.208  -3.568   4.827  0.00  0.00     0.048 C 
ATOM     43  C59 ZIN AC000       9.147  -5.025   2.769  0.00  0.00     0.024 A 
ATOM     44  C60 ZIN AC000       8.828  -5.236   1.473  0.00  0.00     0.099 A 
ATOM     45  N61 ZIN AC000       8.184  -4.267   0.757  0.00  0.00    -0.302 N 
ATOM     46  C62 ZIN AC000       6.986  -2.447  -2.072  0.00  0.00     0.028 C 
ATOM     47  C63 ZIN AC000       6.252  -1.234  -2.441  0.00  0.00     0.063 C 
ATOM     48  C64 ZIN AC000       5.135  -0.502  -1.920  0.00  0.00     0.225 C 
ATOM     49  O65 ZIN AC000       4.585  -0.638  -0.846  0.00  0.00    -0.286 OA
ATOM     50  H77 ZIN AC000       8.559  -6.874  -0.759  0.00  0.00     0.169 HD
ENDROOT
BRANCH  33  51
ATOM     51  O45 ZIN AC000       1.665  -1.803  -3.342  0.00  0.00    -0.315 OA
BRANCH  51  52
ATOM     52  C46 ZIN AC000       1.774  -2.088  -4.649  0.00  0.00     0.255 C 
ATOM     53  C47 ZIN AC000       3.122  -2.411  -5.241  0.00  0.00     0.126 C 
ATOM     54  O48 ZIN AC000       0.791  -2.085  -5.352  0.00  0.00    -0.266 OA
ENDBRANCH  51  52
ENDBRANCH  33  51
BRANCH  30  55
ATOM     55  O39 ZIN AC000      -0.341  -4.654  -4.282  0.00  0.00    -0.395 OA
ATOM     56  H91 ZIN AC000      -1.180  -5.003  -3.953  0.00  0.00     0.210 HD
ENDBRANCH  30  55
BRANCH   1  57
ATOM     57  O2  ZIN AC000       0.135   1.451  -0.852  0.00  0.00    -0.386 OA
ATOM     58  C1  ZIN AC000      -0.167   2.757  -1.346  0.00  0.00     0.202 C 
ENDBRANCH   1  57
BRANCH  27  59
ATOM     59  O33 ZIN AC000       1.393  -6.285  -4.544  0.00  0.00    -0.394 OA
ATOM     60  H87 ZIN AC000       1.471  -7.051  -5.129  0.00  0.00     0.210 HD
ENDBRANCH  27  59
TORSDOF 5
