REMARK  5 active torsions:
REMARK  status: ('A' for Active; 'I' for Inactive)
REMARK    1  A    between atoms: N1_1  and  C5_5 
REMARK    2  A    between atoms: C5_5  and  C7_6 
REMARK    3  A    between atoms: C5_5  and  C12_11 
REMARK    4  A    between atoms: C7_6  and  C8_7 
REMARK    5  A    between atoms: C8_7  and  C9_8 
ROOT
ATOM      1  C5  ZIN AC000      -0.699   1.479   1.216  0.00  0.00     0.283 C 
ENDROOT
BRANCH   1   2
ATOM      2  N1  ZIN AC000      -0.012   1.005   0.008  0.00  0.00    -0.065 N 
ATOM      3  H2  ZIN AC000       0.002  -0.004   0.002  0.00  0.00     0.275 HD
ATOM      4  H3  ZIN AC000       0.935   1.354   0.000  0.00  0.00     0.275 HD
ATOM      5  H4  ZIN AC000      -0.500   1.339  -0.810  0.00  0.00     0.275 HD
ENDBRANCH   1   2
BRANCH   1   6
ATOM      6  C7  ZIN AC000       0.041   0.972   2.456  0.00  0.00     0.054 C 
BRANCH   6   7
ATOM      7  C8  ZIN AC000      -0.046  -0.555   2.513  0.00  0.00     0.116 C 
BRANCH   7   8
ATOM      8  C9  ZIN AC000       0.683  -1.054   3.734  0.00  0.00     0.172 C 
ATOM      9  O10 ZIN AC000       1.222  -0.262   4.488  0.00  0.00    -0.648 OA
ATOM     10  O11 ZIN AC000       0.734  -2.250   3.967  0.00  0.00    -0.648 OA
ENDBRANCH   7   8
ENDBRANCH   6   7
ENDBRANCH   1   6
BRANCH   1  11
ATOM     11  C12 ZIN AC000      -0.720   2.985   1.224  0.00  0.00     0.204 C 
ATOM     12  O13 ZIN AC000      -1.399   3.581   2.043  0.00  0.00    -0.646 OA
ATOM     13  O14 ZIN AC000      -0.057   3.608   0.413  0.00  0.00    -0.646 OA
ENDBRANCH   1  11
TORSDOF 5
