REMARK  3 active torsions:
REMARK  status: ('A' for Active; 'I' for Inactive)
REMARK       I    between atoms: C2_2  and  N4_4 
REMARK    1  A    between atoms: N4_4  and  C5_5 
REMARK    2  A    between atoms: C7_7  and  S8_8 
REMARK    3  A    between atoms: S8_8  and  N9_9 
ROOT
ATOM      1  C5  ZIN AC000      -1.119  -2.018   0.002  0.00  0.00     0.194 A 
ATOM      2  S6  ZIN AC000       0.265  -3.042  -0.009  0.00  0.00    -0.015 SA
ATOM      3  C7  ZIN AC000      -0.663  -4.551  -0.013  0.00  0.00     0.235 A 
ATOM      4  N12 ZIN AC000      -1.906  -4.198  -0.006  0.00  0.00    -0.149 NA
ATOM      5  N13 ZIN AC000      -2.179  -2.848   0.008  0.00  0.00    -0.249 N 
ATOM      6  C14 ZIN AC000      -3.554  -2.340   0.017  0.00  0.00     0.182 C 
ENDROOT
BRANCH   3   7
ATOM      7  S8  ZIN AC000      -0.024  -6.193  -0.024  0.00  0.00     0.282 S 
ATOM      8  O10 ZIN AC000       1.046  -6.213   0.911  0.00  0.00    -0.199 OA
ATOM      9  O11 ZIN AC000      -1.146  -7.061   0.061  0.00  0.00    -0.199 OA
BRANCH   7  10
ATOM     10  N9  ZIN AC000       0.651  -6.447  -1.514  0.00  0.00    -0.323 N 
ATOM     11  H18 ZIN AC000       1.402  -7.054  -1.610  0.00  0.00     0.169 HD
ATOM     12  H19 ZIN AC000       0.296  -5.988  -2.292  0.00  0.00     0.169 HD
ENDBRANCH   7  10
ENDBRANCH   3   7
BRANCH   1  13
ATOM     13  N4  ZIN AC000      -1.137  -0.683   0.009  0.00  0.00    -0.188 NA
ATOM     14  C2  ZIN AC000       0.002  -0.004   0.002  0.00  0.00     0.241 C 
ATOM     15  C1  ZIN AC000      -0.018   1.503   0.010  0.00  0.00     0.119 C 
ATOM     16  O3  ZIN AC000       1.064  -0.598  -0.011  0.00  0.00    -0.272 OA
ENDBRANCH   1  13
TORSDOF 3
