REMARK  1 active torsions:
REMARK  status: ('A' for Active; 'I' for Inactive)
REMARK    1  A    between atoms: N6_6  and  C7_7 
ROOT
ATOM      1  C7  <0> d           2.101  -3.544  -0.039  0.00  0.00     0.139 C 
ATOM      2  N8  <0> d           2.592  -3.909   1.095  0.00  0.00    -0.228 NA
ATOM      3  C9  <0> d           3.558  -4.847   1.305  0.00  0.00     0.093 A 
ATOM      4  C10 <0> d           4.538  -4.602   2.271  0.00  0.00     0.034 A 
ATOM      5  C11 <0> d           5.512  -5.547   2.527  0.00  0.00     0.002 A 
ATOM      6  C12 <0> d           5.521  -6.741   1.831  0.00  0.00     0.003 A 
ATOM      7  C13 <0> d           4.562  -6.989   0.863  0.00  0.00     0.040 A 
ATOM      8  C14 <0> d           3.589  -6.044   0.586  0.00  0.00     0.104 A 
ATOM      9  O15 <0> d           2.705  -6.285  -0.416  0.00  0.00    -0.307 OA
ATOM     10  C16 <0> d           2.732  -5.465  -1.496  0.00  0.00     0.090 A 
ATOM     11  C17 <0> d           3.016  -5.982  -2.749  0.00  0.00     0.040 A 
ATOM     12  C18 <0> d           3.073  -5.144  -3.849  0.00  0.00     0.026 A 
ATOM     13  C19 <0> d           2.848  -3.786  -3.704  0.00  0.00     0.035 A 
ATOM     14 Cl20 <0> d           2.938  -2.742  -5.088  0.00  0.00    -0.084 Cl
ATOM     15  C21 <0> d           2.552  -3.259  -2.462  0.00  0.00     0.042 A 
ATOM     16  C22 <0> d           2.475  -4.101  -1.348  0.00  0.00     0.045 A 
ENDROOT
BRANCH   1  17
ATOM     17  N6  <0> d           1.144  -2.555  -0.024  0.00  0.00    -0.362 N 
ATOM     18  C5  <0> d           0.421  -2.183  -1.250  0.00  0.00     0.152 C 
ATOM     19  C4  <0> d          -1.081  -2.188  -0.948  0.00  0.00     0.254 C 
ATOM     20  N2  <0> d          -1.351  -1.317   0.203  0.00  0.00    -0.072 N 
ATOM     21  C1  <0> d          -2.801  -1.235   0.423  0.00  0.00     0.269 C 
ATOM     22  H3  <0> d          -0.988  -0.394   0.017  0.00  0.00     0.279 HD
ATOM     23  C24 <0> d          -0.706  -1.863   1.403  0.00  0.00     0.254 C 
ATOM     24  C23 <0> d           0.815  -1.839   1.219  0.00  0.00     0.152 C 
ENDBRANCH   1  17
TORSDOF 1
