REMARK  12 active torsions:
REMARK  status: ('A' for Active; 'I' for Inactive)
REMARK    1  A    between atoms: O2_2  and  C3_3 
REMARK    2  A    between atoms: C6_6  and  C7_7 
REMARK    3  A    between atoms: C7_7  and  N8_8 
REMARK       I    between atoms: N8_8  and  C9_9 
REMARK    4  A    between atoms: N8_8  and  C26_25 
REMARK    5  A    between atoms: C9_9  and  C11_11 
REMARK    6  A    between atoms: C11_11  and  N13_12 
REMARK    7  A    between atoms: C11_11  and  C14_13 
REMARK    8  A    between atoms: C14_13  and  C15_14 
REMARK    9  A    between atoms: C19_18  and  C20_19 
REMARK       I    between atoms: C20_19  and  N21_20 
REMARK   10  A    between atoms: C26_25  and  C29_27 
REMARK   11  A    between atoms: C31_29  and  C32_30 
REMARK   12  A    between atoms: C41_39  and  C42_40 
ROOT
ATOM      1  N8  ZIN AC000       3.207  -2.806  -5.158  0.00  0.00    -0.335 N 
ATOM      2  C9  ZIN AC000       3.793  -3.643  -4.279  0.00  0.00     0.254 C 
ATOM      3  O10 ZIN AC000       4.845  -3.337  -3.759  0.00  0.00    -0.271 OA
ENDROOT
BRANCH   1   4
ATOM      4  C7  ZIN AC000       1.897  -3.139  -5.724  0.00  0.00     0.165 C 
BRANCH   4   5
ATOM      5  C6  ZIN AC000       2.081  -3.761  -7.084  0.00  0.00    -0.039 A 
ATOM      6  C5  ZIN AC000       2.298  -5.125  -7.195  0.00  0.00     0.011 A 
ATOM      7  C4  ZIN AC000       2.469  -5.708  -8.435  0.00  0.00     0.038 A 
ATOM      8  C3  ZIN AC000       2.425  -4.929  -9.581  0.00  0.00     0.085 A 
ATOM      9  C41 ZIN AC000       2.211  -3.547  -9.474  0.00  0.00     0.074 A 
ATOM     10  C40 ZIN AC000       2.034  -2.971  -8.212  0.00  0.00     0.030 A 
BRANCH   8  11
ATOM     11  O2  ZIN AC000       2.593  -5.500 -10.800  0.00  0.00    -0.355 OA
ATOM     12  C1  ZIN AC000       2.696  -6.925 -10.840  0.00  0.00     0.210 C 
ENDBRANCH   8  11
BRANCH   9  13
ATOM     13  C42 ZIN AC000       2.162  -2.709 -10.683  0.00  0.00     0.212 C 
ATOM     14  O43 ZIN AC000       1.966  -1.505 -10.586  0.00  0.00    -0.644 OA
ATOM     15  O44 ZIN AC000       2.317  -3.216 -11.785  0.00  0.00    -0.644 OA
ENDBRANCH   9  13
ENDBRANCH   4   5
ENDBRANCH   1   4
BRANCH   1  16
ATOM     16  C26 ZIN AC000       3.878  -1.564  -5.547  0.00  0.00     0.153 C 
ATOM     17  C28 ZIN AC000       4.225  -1.616  -7.036  0.00  0.00     0.041 C 
BRANCH  16  18
ATOM     18  C29 ZIN AC000       2.964  -0.395  -5.284  0.00  0.00     0.127 A 
ATOM     19  N39 ZIN AC000       3.362   0.877  -5.063  0.00  0.00    -0.350 N 
ATOM     20  C38 ZIN AC000       2.237   1.630  -4.872  0.00  0.00     0.122 A 
ATOM     21  H75 ZIN AC000       4.277   1.199  -5.048  0.00  0.00     0.166 HD
ATOM     22  C31 ZIN AC000       1.179   0.784  -4.974  0.00  0.00     0.084 A 
ATOM     23  N30 ZIN AC000       1.663  -0.449  -5.227  0.00  0.00    -0.231 NA
BRANCH  22  24
ATOM     24  C32 ZIN AC000      -0.252   1.150  -4.833  0.00  0.00    -0.006 A 
ATOM     25  C37 ZIN AC000      -1.233   0.160  -4.854  0.00  0.00     0.014 A 
ATOM     26  C36 ZIN AC000      -2.562   0.506  -4.717  0.00  0.00     0.001 A 
ATOM     27  C35 ZIN AC000      -2.922   1.833  -4.570  0.00  0.00     0.000 A 
ATOM     28  C34 ZIN AC000      -1.953   2.821  -4.555  0.00  0.00     0.001 A 
ATOM     29  C33 ZIN AC000      -0.621   2.486  -4.685  0.00  0.00     0.014 A 
ENDBRANCH  22  24
ENDBRANCH  16  18
ENDBRANCH   1  16
BRANCH   2  30
ATOM     30  C11 ZIN AC000       3.142  -4.960  -3.943  0.00  0.00     0.313 C 
BRANCH  30  31
ATOM     31  N13 ZIN AC000       4.179  -5.964  -3.672  0.00  0.00     0.092 N 
ATOM     32  H52 ZIN AC000       4.735  -6.141  -4.496  0.00  0.00     0.313 HD
ATOM     33  H53 ZIN AC000       4.761  -5.684  -2.897  0.00  0.00     0.313 HD
ENDBRANCH  30  31
BRANCH  30  34
ATOM     34  C14 ZIN AC000       2.260  -4.791  -2.704  0.00  0.00     0.084 C 
BRANCH  34  35
ATOM     35  C15 ZIN AC000       1.552  -6.089  -2.411  0.00  0.00    -0.044 A 
ATOM     36  C24 ZIN AC000       2.124  -7.007  -1.549  0.00  0.00    -0.054 A 
ATOM     37  C23 ZIN AC000       1.479  -8.194  -1.273  0.00  0.00     0.024 A 
ATOM     38  C25 ZIN AC000       3.451  -6.704  -0.901  0.00  0.00     0.049 C 
ATOM     39  C19 ZIN AC000       0.250  -8.473  -1.874  0.00  0.00     0.032 A 
ATOM     40  C18 ZIN AC000      -0.319  -7.545  -2.747  0.00  0.00     0.024 A 
ATOM     41  C16 ZIN AC000       0.334  -6.359  -3.010  0.00  0.00    -0.054 A 
ATOM     42  C17 ZIN AC000      -0.279  -5.356  -3.953  0.00  0.00     0.049 C 
BRANCH  39  43
ATOM     43  C20 ZIN AC000      -0.444  -9.747  -1.587  0.00  0.00     0.249 C 
ATOM     44  N21 ZIN AC000       0.109 -10.641  -0.744  0.00  0.00    -0.366 N 
ATOM     45  H60 ZIN AC000       0.962 -10.449  -0.325  0.00  0.00     0.159 HD
ATOM     46  H61 ZIN AC000      -0.347 -11.476  -0.556  0.00  0.00     0.159 HD
ATOM     47  O22 ZIN AC000      -1.514  -9.987  -2.112  0.00  0.00    -0.268 OA
ENDBRANCH  39  43
ENDBRANCH  34  35
ENDBRANCH  30  34
ENDBRANCH   2  30
TORSDOF 12
