REMARK  2 active torsions:
REMARK  status: ('A' for Active; 'I' for Inactive)
REMARK    1  A    between atoms: C3_3  and  O4_4 
REMARK    2  A    between atoms: C25_21  and  C26_22 
ROOT
ATOM      1  C1  ZIN AC000      -0.044  -1.234  -1.509  0.00  0.00     0.015 C 
ATOM      2  C2  ZIN AC000      -0.124  -0.088  -1.271  0.00  0.00    -0.078 C 
ATOM      3  C3  ZIN AC000      -0.224   1.347  -0.973  0.00  0.00     0.128 C 
ATOM      4  C5  ZIN AC000      -0.243   2.174  -2.285  0.00  0.00     0.052 C 
ATOM      5  C6  ZIN AC000       0.795   3.319  -2.102  0.00  0.00     0.010 C 
ATOM      6  C7  ZIN AC000       1.003   3.330  -0.582  0.00  0.00     0.002 C 
ATOM      7  C9  ZIN AC000       2.144   4.119  -0.016  0.00  0.00    -0.005 C 
ATOM      8  C11 ZIN AC000       3.499   3.806  -0.634  0.00  0.00     0.010 C 
ATOM      9  C12 ZIN AC000       4.526   4.813  -0.090  0.00  0.00     0.035 C 
ATOM     10  C13 ZIN AC000       4.556   4.641   1.420  0.00  0.00    -0.072 C 
ATOM     11  C14 ZIN AC000       5.740   4.434   1.997  0.00  0.00     0.053 C 
ATOM     12  C15 ZIN AC000       5.817   4.277   3.454  0.00  0.00     0.149 C 
ATOM     13  O16 ZIN AC000       6.734   3.692   3.989  0.00  0.00    -0.293 OA
ATOM     14  C17 ZIN AC000       4.679   4.887   4.251  0.00  0.00     0.084 C 
ATOM     15  C18 ZIN AC000       3.377   4.360   3.643  0.00  0.00     0.017 C 
ATOM     16  C19 ZIN AC000       3.264   4.711   2.170  0.00  0.00     0.019 C 
ATOM     17  C21 ZIN AC000       2.178   3.878   1.504  0.00  0.00    -0.002 C 
ATOM     18  C23 ZIN AC000       2.295   2.394   1.817  0.00  0.00     0.006 C 
ATOM     19  C24 ZIN AC000       1.101   1.619   1.233  0.00  0.00     0.014 C 
ATOM     20  C25 ZIN AC000       1.057   1.826  -0.261  0.00  0.00     0.006 C 
ENDROOT
BRANCH   3  21
ATOM     21  O4  ZIN AC000      -1.368   1.631  -0.176  0.00  0.00    -0.377 OA
ATOM     22  H29 ZIN AC000      -2.205   1.373  -0.586  0.00  0.00     0.211 HD
ENDBRANCH   3  21
BRANCH  20  23
ATOM     23  C26 ZIN AC000       2.220   1.097  -0.935  0.00  0.00     0.009 C 
ATOM     24  C27 ZIN AC000       2.425  -0.264  -0.267  0.00  0.00     0.006 C 
ENDBRANCH  20  23
TORSDOF 2
