REMARK  8 active torsions:
REMARK  status: ('A' for Active; 'I' for Inactive)
REMARK    1  A    between atoms: O2_2  and  N3_3 
REMARK    2  A    between atoms: C4_4  and  C5_5 
REMARK    3  A    between atoms: C4_4  and  C30_28 
REMARK       I    between atoms: C5_5  and  N7_7 
REMARK    4  A    between atoms: N7_7  and  C8_8 
REMARK    5  A    between atoms: C13_12  and  C14_13 
REMARK    6  A    between atoms: C17_16  and  C18_17 
REMARK    7  A    between atoms: C19_18  and  C20_19 
REMARK    8  A    between atoms: C33_31  and  N34_32 
ROOT
ATOM      1  C8  ZIN AC000      -3.193  -4.840   3.296  0.00  0.00     0.211 C 
ATOM      2  C10 ZIN AC000      -4.688  -4.571   3.339  0.00  0.00     0.251 C 
ATOM      3  O11 ZIN AC000      -5.671  -5.191   2.990  0.00  0.00    -0.271 OA
ATOM      4  N12 ZIN AC000      -4.489  -3.375   3.919  0.00  0.00    -0.293 N 
ATOM      5  C13 ZIN AC000      -5.195  -2.176   4.123  0.00  0.00     0.122 C 
ATOM      6  C17 ZIN AC000      -4.510  -0.994   4.195  0.00  0.00    -0.015 C 
ATOM      7  C26 ZIN AC000      -3.030  -0.796   4.157  0.00  0.00     0.117 C 
ATOM      8  S27 ZIN AC000      -2.164  -2.201   3.396  0.00  0.00    -0.136 SA
ATOM      9  C28 ZIN AC000      -3.030  -3.604   4.175  0.00  0.00     0.187 C 
ENDROOT
BRANCH   1  10
ATOM     10  N7  ZIN AC000      -2.608  -4.693   1.961  0.00  0.00    -0.339 N 
ATOM     11  C5  ZIN AC000      -2.251  -5.787   1.258  0.00  0.00     0.275 C 
ATOM     12  O6  ZIN AC000      -2.330  -6.888   1.766  0.00  0.00    -0.266 OA
ATOM     13  H39 ZIN AC000      -2.478  -3.810   1.583  0.00  0.00     0.163 HD
BRANCH  11  14
ATOM     14  C4  ZIN AC000      -1.761  -5.645  -0.133  0.00  0.00     0.180 C 
ATOM     15  N3  ZIN AC000      -1.505  -6.707  -0.845  0.00  0.00    -0.126 NA
BRANCH  15  16
ATOM     16  O2  ZIN AC000      -1.588  -7.991  -0.255  0.00  0.00    -0.261 OA
ATOM     17  C1  ZIN AC000      -1.282  -9.062  -1.150  0.00  0.00     0.240 C 
ENDBRANCH  15  16
BRANCH  14  18
ATOM     18  C30 ZIN AC000      -1.562  -4.300  -0.714  0.00  0.00     0.102 A 
ATOM     19  N35 ZIN AC000      -1.676  -3.186   0.009  0.00  0.00    -0.222 NA
ATOM     20  C33 ZIN AC000      -1.475  -2.064  -0.609  0.00  0.00     0.164 A 
ATOM     21  S32 ZIN AC000      -1.107  -2.381  -2.301  0.00  0.00    -0.062 SA
ATOM     22  C31 ZIN AC000      -1.259  -4.112  -2.014  0.00  0.00     0.087 A 
BRANCH  20  23
ATOM     23  N34 ZIN AC000      -1.544  -0.808  -0.028  0.00  0.00    -0.378 N 
ATOM     24  H49 ZIN AC000      -1.383  -0.016  -0.564  0.00  0.00     0.158 HD
ATOM     25  H50 ZIN AC000      -1.753  -0.721   0.915  0.00  0.00     0.158 HD
ENDBRANCH  20  23
ENDBRANCH  14  18
ENDBRANCH  11  14
ENDBRANCH   1  10
BRANCH   5  26
ATOM     26  C14 ZIN AC000      -6.602  -2.192   4.253  0.00  0.00     0.227 C 
ATOM     27  O15 ZIN AC000      -7.259  -1.065   4.526  0.00  0.00    -0.643 OA
ATOM     28  O16 ZIN AC000      -7.272  -3.335   4.104  0.00  0.00    -0.643 OA
ENDBRANCH   5  26
BRANCH   6  29
ATOM     29  C18 ZIN AC000      -5.288   0.167   4.320  0.00  0.00     0.012 C 
ATOM     30  C19 ZIN AC000      -6.003   0.625   3.257  0.00  0.00     0.021 C 
BRANCH  30  31
ATOM     31  C20 ZIN AC000      -5.859   0.010   1.990  0.00  0.00     0.030 A 
ATOM     32  S25 ZIN AC000      -4.682  -1.229   1.562  0.00  0.00    -0.081 SA
ATOM     33  C24 ZIN AC000      -5.293  -1.277  -0.033  0.00  0.00     0.167 A 
ATOM     34  N23 ZIN AC000      -6.264  -0.434  -0.175  0.00  0.00    -0.258 NA
ATOM     35  C21 ZIN AC000      -6.606   0.277   0.870  0.00  0.00     0.048 A 
ATOM     36  C22 ZIN AC000      -7.717   1.295   0.845  0.00  0.00     0.072 C 
ENDBRANCH  30  31
ENDBRANCH   6  29
TORSDOF 8
