REMARK  2 active torsions:
REMARK  status: ('A' for Active; 'I' for Inactive)
REMARK    1  A    between atoms: N2_2  and  C5_5 
REMARK    2  A    between atoms: C5_5  and  C6_6 
ROOT
ATOM      1  C1  <0> d           0.090   1.448  -0.057  0.00  0.00     0.272 C 
ATOM      2  N2  <0> d           0.023  -0.018   0.002  0.00  0.00    -0.069 N 
ATOM      3  C3  <0> d           0.757  -0.494   1.182  0.00  0.00     0.272 C 
ATOM      4  C4  <0> d          -1.380  -0.442   0.096  0.00  0.00     0.272 C 
ENDROOT
BRANCH   2   5
ATOM      5  C5  <0> d           0.626  -0.585  -1.211  0.00  0.00     0.348 C 
BRANCH   5   6
ATOM      6  C6  <0> d           2.083  -0.204  -1.274  0.00  0.00     0.199 C 
ATOM      7  O7  <0> d           2.548   0.564  -0.449  0.00  0.00    -0.647 OA
ATOM      8  O8  <0> d           2.796  -0.663  -2.150  0.00  0.00    -0.647 OA
ENDBRANCH   5   6
ENDBRANCH   2   5
TORSDOF 2
