REMARK  3 active torsions:
REMARK  status: ('A' for Active; 'I' for Inactive)
REMARK    1  A    between atoms: N1_1  and  C5_5 
REMARK    2  A    between atoms: C5_5  and  C6_6 
REMARK    3  A    between atoms: C6_6  and  C7_7 
ROOT
ATOM      1  C7  <0> d          -2.840   1.435   2.467  0.00  0.00     0.027 A 
ATOM      2  C8  <0> d          -2.796   0.854   3.681  0.00  0.00     0.114 A 
ATOM      3  N9  <0> d          -3.572   1.617   4.513  0.00  0.00    -0.360 N 
ATOM      4  C10 <0> d          -4.062   2.637   3.777  0.00  0.00     0.180 A 
ATOM      5  N11 <0> d          -3.616   2.525   2.556  0.00  0.00    -0.355 N 
ATOM      6  H12 <0> d          -3.819   3.131   1.826  0.00  0.00     0.166 HD
ATOM      7  H18 <0> d          -3.738   1.454   5.455  0.00  0.00     0.166 HD
ENDROOT
BRANCH   1   8
ATOM      8  C6  <0> d          -2.135   0.949   1.227  0.00  0.00     0.085 C 
BRANCH   8   9
ATOM      9  C5  <0> d          -0.699   1.479   1.216  0.00  0.00     0.235 C 
BRANCH   9  10
ATOM     10  N1  <0> d          -0.012   1.005   0.008  0.00  0.00    -0.079 N 
ATOM     11  H2  <0> d           0.002  -0.004   0.002  0.00  0.00     0.274 HD
ATOM     12  H3  <0> d           0.935   1.354   0.000  0.00  0.00     0.274 HD
ATOM     13  H4  <0> d          -0.500   1.339  -0.810  0.00  0.00     0.274 HD
ENDBRANCH   9  10
ENDBRANCH   8   9
ENDBRANCH   1   8
TORSDOF 3
