REMARK  4 active torsions:
REMARK  status: ('A' for Active; 'I' for Inactive)
REMARK    1  A    between atoms: C5_5  and  C6_6 
REMARK    2  A    between atoms: C6_6  and  C14_14 
REMARK    3  A    between atoms: C7_7  and  C8_8 
REMARK    4  A    between atoms: C8_8  and  N9_9 
ROOT
ATOM      1  C6  ZIN AC000       0.060  -4.255  -0.021  0.00  0.00     0.001 C 
ATOM      2  C7  ZIN AC000       1.122  -4.912   0.460  0.00  0.00     0.018 C 
ENDROOT
BRANCH   1   3
ATOM      3  C5  ZIN AC000       0.040  -2.772  -0.013  0.00  0.00    -0.024 A 
ATOM      4  C4  ZIN AC000       0.024  -2.066  -1.215  0.00  0.00     0.013 A 
ATOM      5  C3  ZIN AC000       0.006  -0.686  -1.201  0.00  0.00     0.007 A 
ATOM      6  C2  ZIN AC000       0.002  -0.004   0.002  0.00  0.00    -0.062 A 
ATOM      7  C1  ZIN AC000      -0.018   1.503   0.010  0.00  0.00     0.048 C 
ATOM      8  C21 ZIN AC000       0.023  -0.699   1.198  0.00  0.00     0.007 A 
ATOM      9  C20 ZIN AC000       0.036  -2.079   1.196  0.00  0.00     0.013 A 
ENDBRANCH   1   3
BRANCH   1  10
ATOM     10  C14 ZIN AC000      -1.095  -5.010  -0.563  0.00  0.00     0.067 A 
ATOM     11  N19 ZIN AC000      -2.146  -4.353  -1.039  0.00  0.00    -0.260 NA
ATOM     12  C18 ZIN AC000      -3.190  -4.985  -1.533  0.00  0.00     0.117 A 
ATOM     13  C17 ZIN AC000      -3.234  -6.367  -1.563  0.00  0.00     0.019 A 
ATOM     14  C16 ZIN AC000      -2.159  -7.093  -1.071  0.00  0.00     0.004 A 
ATOM     15  C15 ZIN AC000      -1.073  -6.403  -0.562  0.00  0.00     0.032 A 
ENDBRANCH   1  10
BRANCH   2  16
ATOM     16  C8  ZIN AC000       2.297  -4.146   1.010  0.00  0.00     0.300 C 
BRANCH  16  17
ATOM     17  N9  ZIN AC000       2.574  -4.593   2.382  0.00  0.00     0.091 N 
ATOM     18  C13 ZIN AC000       3.559  -3.706   3.039  0.00  0.00     0.273 C 
ATOM     19  C12 ZIN AC000       4.410  -4.588   3.971  0.00  0.00     0.032 C 
ATOM     20  C11 ZIN AC000       3.868  -6.023   3.775  0.00  0.00     0.032 C 
ATOM     21  C10 ZIN AC000       3.183  -5.948   2.388  0.00  0.00     0.273 C 
ENDBRANCH  16  17
ENDBRANCH   2  16
TORSDOF 4
