REMARK  5 active torsions:
REMARK  status: ('A' for Active; 'I' for Inactive)
REMARK       I    between atoms: C2_2  and  N3_3 
REMARK    1  A    between atoms: C2_2  and  C25_24 
REMARK    2  A    between atoms: N3_3  and  C4_4 
REMARK    3  A    between atoms: C4_4  and  C5_5 
REMARK    4  A    between atoms: N8_7  and  C9_8 
REMARK    5  A    between atoms: C12_11  and  N13_12 
ROOT
ATOM      1  C5  <0> d           3.707   2.527   0.067  0.00  0.00     0.170 A 
ATOM      2  C7  <0> d           5.188   2.103   0.080  0.00  0.00     0.168 A 
ATOM      3  N8  <0> d           5.521   1.947  -1.345  0.00  0.00    -0.291 N 
ATOM      4  C22 <0> d           4.434   2.228  -2.077  0.00  0.00     0.368 A 
ATOM      5  O23 <0> d           4.422   2.180  -3.291  0.00  0.00    -0.238 OA
ATOM      6  O24 <0> d           3.361   2.568  -1.348  0.00  0.00    -0.295 OA
ENDROOT
BRANCH   3   7
ATOM      7  C9  <0> d           6.770   1.567  -1.853  0.00  0.00     0.039 A 
ATOM      8  C21 <0> d           6.956   1.455  -3.225  0.00  0.00     0.032 A 
ATOM      9  C20 <0> d           8.188   1.086  -3.726  0.00  0.00     0.032 A 
ATOM     10  C12 <0> d           9.238   0.815  -2.858  0.00  0.00     0.037 A 
ATOM     11  C11 <0> d           9.050   0.921  -1.486  0.00  0.00     0.032 A 
ATOM     12  C10 <0> d           7.819   1.296  -0.986  0.00  0.00     0.032 A 
BRANCH  10  13
ATOM     13  N13 <0> d          10.487   0.435  -3.366  0.00  0.00    -0.314 N 
ATOM     14  C18 <0> d          10.741  -0.868  -3.542  0.00  0.00     0.248 C 
ATOM     15  C17 <0> d          12.065  -1.368  -4.048  0.00  0.00     0.271 C 
ATOM     16  O19 <0> d           9.868  -1.672  -3.292  0.00  0.00    -0.271 OA
ATOM     17  O16 <0> d          12.804  -0.289  -4.623  0.00  0.00    -0.380 OA
ATOM     18  C15 <0> d          12.864   0.864  -3.774  0.00  0.00     0.188 C 
ATOM     19  C14 <0> d          11.464   1.475  -3.679  0.00  0.00     0.158 C 
ENDBRANCH  10  13
ENDBRANCH   3   7
BRANCH   1  20
ATOM     20  C4  <0> d           2.847   1.496   0.799  0.00  0.00     0.157 C 
BRANCH  20  21
ATOM     21  N3  <0> d           1.440   1.897   0.734  0.00  0.00    -0.354 N 
ATOM     22  C2  <0> d           0.493   1.134   1.315  0.00  0.00     0.258 C 
ATOM     23  O1  <0> d           0.807   0.111   1.894  0.00  0.00    -0.267 OA
ATOM     24  H31 <0> d           1.190   2.713   0.272  0.00  0.00     0.162 HD
BRANCH  22  25
ATOM     25  C25 <0> d          -0.914   1.533   1.244  0.00  0.00     0.074 A 
ATOM     26  S30 <0> d          -1.526   2.976   0.447  0.00  0.00    -0.072 SA
ATOM     27  C28 <0> d          -3.132   2.587   0.873  0.00  0.00     0.075 A 
ATOM     28  C27 <0> d          -3.178   1.446   1.574  0.00  0.00     0.033 A 
ATOM     29 Cl29 <0> d          -4.520   3.545   0.460  0.00  0.00    -0.076 Cl
ATOM     30  C26 <0> d          -1.962   0.846   1.791  0.00  0.00     0.027 A 
ENDBRANCH  22  25
ENDBRANCH  20  21
ENDBRANCH   1  20
TORSDOF 5
