REMARK  3 active torsions:
REMARK  status: ('A' for Active; 'I' for Inactive)
REMARK    1  A    between atoms: N1_1  and  C2_2 
REMARK    2  A    between atoms: C5_5  and  C6_6 
REMARK    3  A    between atoms: C9_9  and  O10_10 
ROOT
ATOM      1  C2  <0> d           0.002  -0.004   0.002  0.00  0.00     0.028 A 
ATOM      2  C3  <0> d          -1.198  -0.715   0.004  0.00  0.00     0.030 A 
ATOM      3  C4  <0> d          -1.191  -2.079  -0.004  0.00  0.00     0.023 A 
ATOM      4  C5  <0> d           0.024  -2.775  -0.013  0.00  0.00     0.073 A 
ATOM      5  C9  <0> d           1.236  -2.063  -0.015  0.00  0.00     0.084 A 
ATOM      6  C11 <0> d           1.217  -0.680  -0.013  0.00  0.00     0.066 A 
ENDROOT
BRANCH   1   7
ATOM      7  N1  <0> d          -0.017   1.385   0.010  0.00  0.00    -0.399 N 
ATOM      8  H12 <0> d           0.817   1.881   0.004  0.00  0.00     0.156 HD
ATOM      9  H13 <0> d          -0.863   1.859   0.016  0.00  0.00     0.156 HD
ENDBRANCH   1   7
BRANCH   5  10
ATOM     10  O10 <0> d           2.418  -2.728  -0.024  0.00  0.00    -0.360 OA
ATOM     11  H16 <0> d           2.757  -2.916  -0.909  0.00  0.00     0.217 HD
ENDBRANCH   5  10
BRANCH   4  12
ATOM     12  C6  <0> d           0.032  -4.243  -0.021  0.00  0.00     0.212 C 
ATOM     13  O7  <0> d          -1.024  -4.861  -0.019  0.00  0.00    -0.644 OA
ATOM     14  O8  <0> d           1.095  -4.849  -0.029  0.00  0.00    -0.644 OA
ENDBRANCH   4  12
TORSDOF 3
