REMARK  1 active torsions:
REMARK  status: ('A' for Active; 'I' for Inactive)
REMARK    1  A    between atoms: C4_4  and  C6_5 
ROOT
ATOM      1  C1  <0> d          -0.019   1.526   0.010  0.00  0.00     0.034 C 
ATOM      2  C2  <0> d           0.002  -0.004   0.002  0.00  0.00     0.084 C 
ATOM      3  C3  <0> d          -1.416  -0.574  -0.066  0.00  0.00     0.034 C 
ATOM      4  C4  <0> d           0.885  -0.549  -1.152  0.00  0.00     0.191 C 
ATOM      5  N9  <0> d           1.324  -1.911  -0.837  0.00  0.00    -0.218 NA
ATOM      6  C10 <0> d           2.634  -2.211  -0.989  0.00  0.00     0.204 C 
ATOM      7  O11 <0> d           3.332  -2.308  -1.976  0.00  0.00    -0.280 OA
ATOM      8  C12 <0> d           2.938  -2.384   0.475  0.00  0.00     0.132 C 
ATOM      9  C13 <0> d           1.429  -2.205   0.598  0.00  0.00     0.198 C 
ATOM     10  S15 <0> d           0.920  -0.668   1.453  0.00  0.00     0.172 S 
ATOM     11  O16 <0> d           2.061   0.140   1.712  0.00  0.00    -0.225 OA
ATOM     12  O17 <0> d           0.009  -0.977   2.499  0.00  0.00    -0.225 OA
ENDROOT
BRANCH   4  13
ATOM     13  C6  <0> d           0.086  -0.565  -2.430  0.00  0.00     0.193 C 
ATOM     14  O7  <0> d           0.087   0.411  -3.162  0.00  0.00    -0.647 OA
ATOM     15  O8  <0> d          -0.562  -1.552  -2.732  0.00  0.00    -0.647 OA
ENDBRANCH   4  13
TORSDOF 1
