REMARK  7 active torsions:
REMARK  status: ('A' for Active; 'I' for Inactive)
REMARK    1  A    between atoms: C2_2  and  C3_3 
REMARK    2  A    between atoms: C3_3  and  C4_4 
REMARK    3  A    between atoms: C11_11  and  C12_12 
REMARK    4  A    between atoms: C14_14  and  S15_15 
REMARK    5  A    between atoms: S15_15  and  N18_18 
REMARK    6  A    between atoms: C28_28  and  O29_29 
REMARK    7  A    between atoms: O29_29  and  C30_30 
ROOT
ATOM      1  C12 ZIN AC000       4.910  -3.167  -1.185  0.00  0.00     0.045 A 
ATOM      2  C13 ZIN AC000       5.745  -4.174  -1.671  0.00  0.00     0.043 A 
ATOM      3  C14 ZIN AC000       6.901  -3.842  -2.346  0.00  0.00     0.080 A 
ATOM      4  C26 ZIN AC000       7.237  -2.514  -2.545  0.00  0.00     0.028 A 
ATOM      5  C27 ZIN AC000       6.418  -1.508  -2.068  0.00  0.00     0.039 A 
ATOM      6  C28 ZIN AC000       5.250  -1.824  -1.393  0.00  0.00     0.082 A 
ENDROOT
BRANCH   1   7
ATOM      7  C11 ZIN AC000       3.671  -3.515  -0.461  0.00  0.00     0.144 A 
ATOM      8  N10 ZIN AC000       2.900  -2.551  -0.019  0.00  0.00    -0.226 NA
ATOM      9  C9  ZIN AC000       1.759  -2.822   0.647  0.00  0.00     0.119 A 
ATOM     10  C4  ZIN AC000       0.762  -2.018   1.233  0.00  0.00     0.086 A 
ATOM     11  C8  ZIN AC000       1.392  -4.155   0.870  0.00  0.00     0.151 A 
ATOM     12  N5  ZIN AC000      -0.144  -2.794   1.763  0.00  0.00    -0.174 NA
ATOM     13  N6  ZIN AC000       0.211  -4.133   1.559  0.00  0.00    -0.266 N 
ATOM     14  C7  ZIN AC000      -0.548  -5.304   2.004  0.00  0.00     0.180 C 
ATOM     15  C33 ZIN AC000       2.232  -5.184   0.383  0.00  0.00     0.278 A 
ATOM     16  N32 ZIN AC000       3.361  -4.835  -0.272  0.00  0.00    -0.305 N 
ATOM     17  O34 ZIN AC000       1.948  -6.356   0.557  0.00  0.00    -0.265 OA
ATOM     18  H64 ZIN AC000       3.954  -5.524  -0.612  0.00  0.00     0.170 HD
BRANCH  10  19
ATOM     19  C3  ZIN AC000       0.742  -0.511   1.242  0.00  0.00     0.063 C 
BRANCH  19  20
ATOM     20  C2  ZIN AC000       0.002  -0.004   0.002  0.00  0.00     0.002 C 
ATOM     21  C1  ZIN AC000      -0.019   1.526   0.010  0.00  0.00     0.005 C 
ENDBRANCH  19  20
ENDBRANCH  10  19
ENDBRANCH   1   7
BRANCH   6  22
ATOM     22  O29 ZIN AC000       4.445  -0.837  -0.924  0.00  0.00    -0.351 OA
BRANCH  22  23
ATOM     23  C30 ZIN AC000       4.863   0.509  -1.163  0.00  0.00     0.171 C 
ATOM     24  C31 ZIN AC000       3.837   1.475  -0.567  0.00  0.00     0.034 C 
ENDBRANCH  22  23
ENDBRANCH   6  22
BRANCH   3  25
ATOM     25  S15 ZIN AC000       7.955  -5.115  -2.959  0.00  0.00     0.261 S 
ATOM     26  O16 ZIN AC000       9.248  -4.539  -3.084  0.00  0.00    -0.200 OA
ATOM     27  O17 ZIN AC000       7.690  -6.268  -2.173  0.00  0.00    -0.200 OA
BRANCH  25  28
ATOM     28  N18 ZIN AC000       7.450  -5.470  -4.496  0.00  0.00    -0.304 N 
ATOM     29  C25 ZIN AC000       8.006  -4.760  -5.658  0.00  0.00     0.163 C 
ATOM     30  C24 ZIN AC000       6.851  -4.253  -6.521  0.00  0.00     0.255 C 
ATOM     31  N21 ZIN AC000       5.966  -5.374  -6.862  0.00  0.00    -0.072 N 
ATOM     32  C20 ZIN AC000       5.345  -5.909  -5.644  0.00  0.00     0.255 C 
ATOM     33  H22 ZIN AC000       6.502  -6.100  -7.312  0.00  0.00     0.279 HD
ATOM     34  C23 ZIN AC000       4.917  -4.903  -7.777  0.00  0.00     0.269 C 
ATOM     35  C19 ZIN AC000       6.429  -6.502  -4.737  0.00  0.00     0.163 C 
ENDBRANCH  25  28
ENDBRANCH   3  25
TORSDOF 7
