REMARK  3 active torsions:
REMARK  status: ('A' for Active; 'I' for Inactive)
REMARK    1  A    between atoms: N1_1  and  S2_2 
REMARK    2  A    between atoms: S2_2  and  C5_5 
REMARK    3  A    between atoms: C5_5  and  C6_6 
ROOT
ATOM      1  C6  ZIN AC000       1.917  -1.932  -0.027  0.00  0.00     0.090 A 
ATOM      2  N7  ZIN AC000       1.999  -2.702   1.014  0.00  0.00    -0.131 NA
ATOM      3  O8  ZIN AC000       2.134  -4.048   0.603  0.00  0.00    -0.212 OA
ATOM      4  C9  ZIN AC000       2.134  -4.105  -0.744  0.00  0.00     0.113 A 
ATOM      5  C10 ZIN AC000       2.236  -5.148  -1.656  0.00  0.00     0.040 A 
ATOM      6  C11 ZIN AC000       2.204  -4.882  -3.008  0.00  0.00     0.003 A 
ATOM      7  C12 ZIN AC000       2.071  -3.580  -3.468  0.00  0.00     0.001 A 
ATOM      8  C13 ZIN AC000       1.969  -2.539  -2.587  0.00  0.00     0.016 A 
ATOM      9  C14 ZIN AC000       1.993  -2.789  -1.213  0.00  0.00     0.028 A 
ENDROOT
BRANCH   1  10
ATOM     10  C5  ZIN AC000       1.765  -0.433  -0.017  0.00  0.00     0.225 C 
BRANCH  10  11
ATOM     11  S2  ZIN AC000       0.002  -0.004   0.002  0.00  0.00     0.230 S 
ATOM     12  O3  ZIN AC000      -0.587  -0.369   1.243  0.00  0.00    -0.206 OA
ATOM     13  O4  ZIN AC000      -0.610  -0.356  -1.231  0.00  0.00    -0.206 OA
BRANCH  11  14
ATOM     14  N1  ZIN AC000      -0.020   1.652   0.011  0.00  0.00    -0.328 N 
ATOM     15  H15 ZIN AC000       0.813   2.148   0.006  0.00  0.00     0.168 HD
ATOM     16  H16 ZIN AC000      -0.867   2.125   0.018  0.00  0.00     0.168 HD
ENDBRANCH  11  14
ENDBRANCH  10  11
ENDBRANCH   1  10
TORSDOF 3
