REMARK  15 active torsions:
REMARK  status: ('A' for Active; 'I' for Inactive)
REMARK    1  A    between atoms: C2_2  and  N3_3 
REMARK       I    between atoms: N3_3  and  C4_4 
REMARK    2  A    between atoms: C4_4  and  C6_6 
REMARK    3  A    between atoms: C6_6  and  C7_7 
REMARK    4  A    between atoms: C7_7  and  C8_8 
REMARK    5  A    between atoms: C8_8  and  C9_9 
REMARK    6  A    between atoms: C10_10  and  C11_11 
REMARK    7  A    between atoms: C11_11  and  C12_12 
REMARK    8  A    between atoms: C14_13  and  C16_14 
REMARK    9  A    between atoms: C17_15  and  C18_16 
REMARK   10  A    between atoms: C18_16  and  O20_17 
REMARK   11  A    between atoms: C18_16  and  C21_18 
REMARK   12  A    between atoms: C21_18  and  C22_19 
REMARK   13  A    between atoms: C22_19  and  C23_20 
REMARK   14  A    between atoms: C29_26  and  O31_27 
REMARK   15  A    between atoms: C33_29  and  O35_30 
ROOT
ATOM      1  C12 ZIN AC000       5.676  -6.355   5.016  0.00  0.00     0.028 C 
ATOM      2  C14 ZIN AC000       6.957  -5.517   5.210  0.00  0.00     0.043 C 
ATOM      3  C29 ZIN AC000       8.062  -6.569   5.481  0.00  0.00     0.128 C 
ATOM      4  C32 ZIN AC000       7.673  -7.726   4.528  0.00  0.00     0.064 C 
ATOM      5  C33 ZIN AC000       6.131  -7.760   4.583  0.00  0.00     0.125 C 
ENDROOT
BRANCH   2   6
ATOM      6  C16 ZIN AC000       6.807  -4.590   6.388  0.00  0.00    -0.021 C 
ATOM      7  C17 ZIN AC000       6.901  -3.294   6.218  0.00  0.00     0.001 C 
BRANCH   7   8
ATOM      8  C18 ZIN AC000       6.751  -2.366   7.396  0.00  0.00     0.141 C 
BRANCH   8   9
ATOM      9  O20 ZIN AC000       6.631  -3.135   8.595  0.00  0.00    -0.392 OA
ATOM     10  H54 ZIN AC000       7.391  -3.704   8.775  0.00  0.00     0.210 HD
ENDBRANCH   8   9
BRANCH   8  11
ATOM     11  C21 ZIN AC000       7.980  -1.461   7.492  0.00  0.00     0.040 C 
BRANCH  11  12
ATOM     12  C22 ZIN AC000       7.774  -0.437   8.610  0.00  0.00     0.041 C 
BRANCH  12  13
ATOM     13  C23 ZIN AC000       8.985   0.455   8.704  0.00  0.00    -0.058 A 
ATOM     14  C28 ZIN AC000       9.044   1.621   7.963  0.00  0.00     0.007 A 
ATOM     15  C27 ZIN AC000      10.153   2.441   8.053  0.00  0.00     0.001 A 
ATOM     16  C26 ZIN AC000      11.206   2.091   8.877  0.00  0.00     0.000 A 
ATOM     17  C25 ZIN AC000      11.149   0.923   9.614  0.00  0.00     0.001 A 
ATOM     18  C24 ZIN AC000      10.038   0.105   9.528  0.00  0.00     0.007 A 
ENDBRANCH  12  13
ENDBRANCH  11  12
ENDBRANCH   8  11
ENDBRANCH   7   8
ENDBRANCH   2   6
BRANCH   1  19
ATOM     19  C11 ZIN AC000       4.800  -5.730   3.929  0.00  0.00     0.034 C 
BRANCH  19  20
ATOM     20  C10 ZIN AC000       3.507  -6.496   3.823  0.00  0.00    -0.030 C 
ATOM     21  C9  ZIN AC000       2.363  -5.864   3.909  0.00  0.00    -0.031 C 
BRANCH  21  22
ATOM     22  C8  ZIN AC000       2.334  -4.358   3.943  0.00  0.00     0.027 C 
BRANCH  22  23
ATOM     23  C7  ZIN AC000       1.373  -3.842   2.870  0.00  0.00     0.013 C 
BRANCH  23  24
ATOM     24  C6  ZIN AC000       1.344  -2.313   2.905  0.00  0.00     0.103 C 
BRANCH  24  25
ATOM     25  C4  ZIN AC000       0.398  -1.804   1.848  0.00  0.00     0.217 C 
ATOM     26  N3  ZIN AC000       0.210  -0.479   1.692  0.00  0.00    -0.361 N 
ATOM     27  H41 ZIN AC000       0.684   0.148   2.261  0.00  0.00     0.162 HD
ATOM     28  O5  ZIN AC000      -0.195  -2.588   1.137  0.00  0.00    -0.274 OA
BRANCH  26  29
ATOM     29  C2  ZIN AC000      -0.710   0.015   0.665  0.00  0.00     0.118 C 
ATOM     30  C1  ZIN AC000      -0.739   1.545   0.699  0.00  0.00     0.026 C 
ENDBRANCH  26  29
ENDBRANCH  24  25
ENDBRANCH  23  24
ENDBRANCH  22  23
ENDBRANCH  21  22
ENDBRANCH  19  20
ENDBRANCH   1  19
BRANCH   3  31
ATOM     31  O31 ZIN AC000       9.350  -6.046   5.151  0.00  0.00    -0.395 OA
ATOM     32  H64 ZIN AC000      10.076  -6.666   5.303  0.00  0.00     0.210 HD
ENDBRANCH   3  31
BRANCH   5  33
ATOM     33  O35 ZIN AC000       5.602  -8.071   3.292  0.00  0.00    -0.395 OA
ATOM     34  H67 ZIN AC000       5.871  -8.936   2.955  0.00  0.00     0.210 HD
ENDBRANCH   5  33
TORSDOF 15
