REMARK  2 active torsions:
REMARK  status: ('A' for Active; 'I' for Inactive)
REMARK    1  A    between atoms: C8_8  and  C9_9 
REMARK    2  A    between atoms: C10_10  and  C11_11 
ROOT
ATOM      1  C1  <0> d           0.526   1.204   1.448  0.00  0.00     0.151 C 
ATOM      2  N2  <0> d           1.031  -0.113   1.843  0.00  0.00    -0.372 N 
ATOM      3  C3  <0> d           0.291  -0.944   2.805  0.00  0.00     0.125 C 
ATOM      4  C4  <0> d           1.319  -1.560   3.766  0.00  0.00     0.039 C 
ATOM      5  C5  <0> d           2.303  -2.401   2.950  0.00  0.00     0.123 C 
ATOM      6  N6  <0> d           2.812  -1.640   1.815  0.00  0.00    -0.376 N 
ATOM      7  H7  <0> d           3.645  -1.926   1.409  0.00  0.00     0.161 HD
ATOM      8  C8  <0> d           2.209  -0.604   1.313  0.00  0.00     0.098 C 
ENDROOT
BRANCH   8   9
ATOM      9  C9  <0> d           2.804   0.071   0.157  0.00  0.00     0.049 C 
ATOM     10  C10 <0> d           3.558  -0.629  -0.720  0.00  0.00     0.022 C 
BRANCH  10  11
ATOM     11  C11 <0> d           3.580  -2.089  -0.663  0.00  0.00     0.004 A 
ATOM     12  S15 <0> d           2.223  -3.113  -0.211  0.00  0.00    -0.102 SA
ATOM     13  C14 <0> d           3.155  -4.525  -0.430  0.00  0.00     0.050 A 
ATOM     14  C13 <0> d           4.401  -4.224  -0.810  0.00  0.00     0.008 A 
ATOM     15  C12 <0> d           4.661  -2.879  -0.946  0.00  0.00     0.019 A 
ENDBRANCH  10  11
ENDBRANCH   8   9
TORSDOF 2
