REMARK  7 active torsions:
REMARK  status: ('A' for Active; 'I' for Inactive)
REMARK    1  A    between atoms: C2_2  and  C5_5 
REMARK    2  A    between atoms: C7_7  and  C8_8 
REMARK    3  A    between atoms: C12_12  and  N13_13 
REMARK    4  A    between atoms: N13_13  and  S14_14 
REMARK    5  A    between atoms: S14_14  and  C17_17 
REMARK    6  A    between atoms: C27_27  and  C28_28 
REMARK    7  A    between atoms: C32_32  and  N33_33 
ROOT
ATOM      1  C8  ZIN AC000       3.255  -0.307  -3.636  0.00  0.00     0.035 A 
ATOM      2  C9  ZIN AC000       2.979  -0.042  -4.978  0.00  0.00     0.017 A 
ATOM      3  C10 ZIN AC000       4.000   0.316  -5.835  0.00  0.00     0.003 A 
ATOM      4  C11 ZIN AC000       5.298   0.413  -5.370  0.00  0.00     0.033 A 
ATOM      5  C12 ZIN AC000       5.584   0.151  -4.036  0.00  0.00     0.082 A 
ATOM      6  C25 ZIN AC000       4.563  -0.204  -3.164  0.00  0.00     0.156 A 
ATOM      7  F26 ZIN AC000       4.838  -0.458  -1.866  0.00  0.00    -0.203 F 
ENDROOT
BRANCH   1   8
ATOM      8  C7  ZIN AC000       2.160  -0.692  -2.715  0.00  0.00     0.090 A 
ATOM      9  N6  ZIN AC000       1.847   0.001  -1.634  0.00  0.00    -0.243 NA
ATOM     10  C5  ZIN AC000       0.874  -0.437  -0.911  0.00  0.00     0.084 A 
ATOM     11  S35 ZIN AC000       0.220  -1.870  -1.572  0.00  0.00    -0.069 SA
ATOM     12  C27 ZIN AC000       1.374  -1.803  -2.902  0.00  0.00     0.066 A 
BRANCH  10  13
ATOM     13  C2  ZIN AC000       0.383   0.224   0.351  0.00  0.00     0.000 C 
ATOM     14  C1  ZIN AC000      -0.095   1.642   0.033  0.00  0.00     0.021 C 
ATOM     15  C3  ZIN AC000       1.522   0.286   1.371  0.00  0.00     0.021 C 
ATOM     16  C4  ZIN AC000      -0.778  -0.586   0.933  0.00  0.00     0.021 C 
ENDBRANCH  10  13
BRANCH  12  17
ATOM     17  C28 ZIN AC000       1.480  -2.767  -4.011  0.00  0.00     0.097 A 
ATOM     18  N34 ZIN AC000       2.476  -2.677  -4.895  0.00  0.00    -0.062 NA
ATOM     19  C32 ZIN AC000       2.574  -3.546  -5.888  0.00  0.00     0.720 A 
ATOM     20  N31 ZIN AC000       1.693  -4.523  -6.049  0.00  0.00    -0.075 NA
ATOM     21  C30 ZIN AC000       0.676  -4.671  -5.213  0.00  0.00     0.139 A 
ATOM     22  C29 ZIN AC000       0.534  -3.791  -4.158  0.00  0.00     0.053 A 
BRANCH  19  23
ATOM     23  N33 ZIN AC000       3.622  -3.428  -6.785  0.00  0.00    -0.231 N 
ATOM     24  H54 ZIN AC000       3.653  -3.995  -7.572  0.00  0.00     0.174 HD
ATOM     25  H55 ZIN AC000       4.325  -2.780  -6.627  0.00  0.00     0.174 HD
ENDBRANCH  19  23
ENDBRANCH  12  17
ENDBRANCH   1   8
BRANCH   5  26
ATOM     26  N13 ZIN AC000       6.899   0.251  -3.569  0.00  0.00    -0.277 N 
ATOM     27  H48 ZIN AC000       7.221  -0.364  -2.892  0.00  0.00     0.179 HD
BRANCH  26  28
ATOM     28  S14 ZIN AC000       7.906   1.419  -4.174  0.00  0.00     0.269 S 
ATOM     29  O15 ZIN AC000       9.119   1.322  -3.440  0.00  0.00    -0.200 OA
ATOM     30  O16 ZIN AC000       7.843   1.309  -5.590  0.00  0.00    -0.200 OA
BRANCH  28  31
ATOM     31  C17 ZIN AC000       7.199   2.980  -3.764  0.00  0.00     0.156 A 
ATOM     32  C23 ZIN AC000       7.533   3.600  -2.572  0.00  0.00     0.142 A 
ATOM     33  C22 ZIN AC000       6.982   4.829  -2.254  0.00  0.00     0.044 A 
ATOM     34  F24 ZIN AC000       8.405   3.010  -1.725  0.00  0.00    -0.204 F 
ATOM     35  C21 ZIN AC000       6.089   5.432  -3.120  0.00  0.00     0.006 A 
ATOM     36  C20 ZIN AC000       5.751   4.812  -4.307  0.00  0.00     0.044 A 
ATOM     37  C18 ZIN AC000       6.305   3.585  -4.631  0.00  0.00     0.142 A 
ATOM     38  F19 ZIN AC000       5.974   2.978  -5.791  0.00  0.00    -0.204 F 
ENDBRANCH  28  31
ENDBRANCH  26  28
ENDBRANCH   5  26
TORSDOF 7
