REMARK  8 active torsions:
REMARK  status: ('A' for Active; 'I' for Inactive)
REMARK    1  A    between atoms: O1_1  and  C2_2 
REMARK    2  A    between atoms: C2_2  and  C4_3 
REMARK    3  A    between atoms: C2_2  and  C22_19 
REMARK    4  A    between atoms: C4_3  and  N5_4 
REMARK    5  A    between atoms: N5_4  and  C6_5 
REMARK    6  A    between atoms: C6_5  and  C7_6 
REMARK    7  A    between atoms: C7_6  and  O9_7 
REMARK    8  A    between atoms: C7_6  and  C10_8 
ROOT
ATOM      1  N5  ZIN AC000       0.008  -0.011  -2.447  0.00  0.00     0.088 N 
ATOM      2  H37 ZIN AC000      -0.961  -0.293  -2.431  0.00  0.00     0.316 HD
ENDROOT
BRANCH   1   3
ATOM      3  C4  ZIN AC000       0.718  -0.497  -1.257  0.00  0.00     0.303 C 
BRANCH   3   4
ATOM      4  C2  ZIN AC000       0.002  -0.004   0.002  0.00  0.00     0.175 C 
BRANCH   4   5
ATOM      5  O1  ZIN AC000      -0.017   1.425   0.010  0.00  0.00    -0.391 OA
ATOM      6  H34 ZIN AC000       0.861   1.830   0.004  0.00  0.00     0.210 HD
ENDBRANCH   4   5
BRANCH   4   7
ATOM      7  C22 ZIN AC000       0.742  -0.511   1.242  0.00  0.00     0.159 C 
ATOM      8  O33 ZIN AC000       2.111  -0.106   1.184  0.00  0.00    -0.343 OA
ATOM      9  C32 ZIN AC000       2.867  -0.264   2.302  0.00  0.00     0.075 A 
ATOM     10  C26 ZIN AC000       2.296  -0.459   3.547  0.00  0.00    -0.022 A 
ATOM     11  C31 ZIN AC000       4.252  -0.221   2.177  0.00  0.00     0.040 A 
ATOM     12  C25 ZIN AC000       0.800  -0.519   3.725  0.00  0.00     0.044 C 
ATOM     13  C27 ZIN AC000       3.105  -0.604   4.662  0.00  0.00     0.052 A 
ATOM     14  C24 ZIN AC000       0.111   0.093   2.503  0.00  0.00     0.040 C 
ATOM     15  C28 ZIN AC000       4.482  -0.559   4.535  0.00  0.00     0.117 A 
ATOM     16  F29 ZIN AC000       5.267  -0.700   5.625  0.00  0.00    -0.206 F 
ATOM     17  C30 ZIN AC000       5.055  -0.368   3.289  0.00  0.00     0.045 A 
ENDBRANCH   4   7
ENDBRANCH   3   4
ENDBRANCH   1   3
BRANCH   1  18
ATOM     18  C6  ZIN AC000       0.668  -0.466  -3.677  0.00  0.00     0.303 C 
BRANCH  18  19
ATOM     19  C7  ZIN AC000      -0.099   0.059  -4.893  0.00  0.00     0.175 C 
BRANCH  19  20
ATOM     20  O9  ZIN AC000      -1.439  -0.436  -4.860  0.00  0.00    -0.391 OA
ATOM     21  H40 ZIN AC000      -1.502  -1.401  -4.878  0.00  0.00     0.210 HD
ENDBRANCH  19  20
BRANCH  19  22
ATOM     22  C10 ZIN AC000       0.590  -0.415  -6.174  0.00  0.00     0.159 C 
ATOM     23  O21 ZIN AC000       0.704  -1.839  -6.160  0.00  0.00    -0.343 OA
ATOM     24  C20 ZIN AC000       1.078  -2.457  -7.311  0.00  0.00     0.075 A 
ATOM     25  C14 ZIN AC000       1.006  -1.820  -8.538  0.00  0.00    -0.022 A 
ATOM     26  C19 ZIN AC000       1.538  -3.768  -7.240  0.00  0.00     0.040 A 
ATOM     27  C13 ZIN AC000       0.519  -0.398  -8.657  0.00  0.00     0.044 C 
ATOM     28  C15 ZIN AC000       1.386  -2.492  -9.687  0.00  0.00     0.052 A 
ATOM     29  C12 ZIN AC000      -0.250  -0.008  -7.392  0.00  0.00     0.040 C 
ATOM     30  C16 ZIN AC000       1.842  -3.796  -9.614  0.00  0.00     0.117 A 
ATOM     31  F17 ZIN AC000       2.211  -4.447 -10.739  0.00  0.00    -0.206 F 
ATOM     32  C18 ZIN AC000       1.918  -4.434  -8.388  0.00  0.00     0.045 A 
ENDBRANCH  19  22
ENDBRANCH  18  19
ENDBRANCH   1  18
TORSDOF 8
