REMARK  2 active torsions:
REMARK  status: ('A' for Active; 'I' for Inactive)
REMARK    1  A    between atoms: C2_2  and  C4_4 
REMARK    2  A    between atoms: C12_10  and  O14_11 
ROOT
ATOM      1  C4  <0> d          -1.392  -0.633  -0.052  0.00  0.00     0.018 C 
ATOM      2  C6  <0> d          -1.266  -2.157   0.003  0.00  0.00     0.008 C 
ATOM      3  C7  <0> d          -2.660  -2.785  -0.052  0.00  0.00     0.005 C 
ATOM      4  C8  <0> d          -3.353  -2.377  -1.354  0.00  0.00    -0.016 C 
ATOM      5  C10 <0> d          -4.747  -3.006  -1.408  0.00  0.00     0.010 C 
ATOM      6  C11 <0> d          -3.478  -0.854  -1.409  0.00  0.00     0.036 C 
ATOM      7  C12 <0> d          -2.085  -0.225  -1.354  0.00  0.00     0.122 C 
ENDROOT
BRANCH   1   8
ATOM      8  C2  <0> d           0.002  -0.004   0.002  0.00  0.00    -0.016 C 
ATOM      9  C1  <0> d           0.650  -0.316   1.353  0.00  0.00     0.010 C 
ATOM     10  C3  <0> d           0.865  -0.579  -1.123  0.00  0.00     0.010 C 
ENDBRANCH   1   8
BRANCH   7  11
ATOM     11  O14 <0> d          -2.202   1.198  -1.406  0.00  0.00    -0.395 OA
ATOM     12  H31 <0> d          -2.633   1.529  -2.206  0.00  0.00     0.210 HD
ENDBRANCH   7  11
TORSDOF 2
