REMARK  4 active torsions:
REMARK  status: ('A' for Active; 'I' for Inactive)
REMARK    1  A    between atoms: N1_1  and  C5_5 
REMARK    2  A    between atoms: C5_5  and  C7_6 
REMARK    3  A    between atoms: C5_5  and  C14_13 
REMARK    4  A    between atoms: C7_6  and  C8_7 
ROOT
ATOM      1  C5  <0> d          -0.699   1.479   1.216  0.00  0.00     0.287 C 
ENDROOT
BRANCH   1   2
ATOM      2  N1  <0> d          -0.012   1.005   0.008  0.00  0.00    -0.065 N 
ATOM      3  H2  <0> d           0.002  -0.004   0.002  0.00  0.00     0.275 HD
ATOM      4  H3  <0> d           0.935   1.354   0.000  0.00  0.00     0.275 HD
ATOM      5  H4  <0> d          -0.500   1.339  -0.810  0.00  0.00     0.275 HD
ENDBRANCH   1   2
BRANCH   1   6
ATOM      6  C7  <0> d           0.041   0.972   2.456  0.00  0.00     0.082 C 
BRANCH   6   7
ATOM      7  C8  <0> d          -0.045  -0.532   2.512  0.00  0.00    -0.056 A 
ATOM      8  C13 <0> d           0.927  -1.303   1.901  0.00  0.00     0.007 A 
ATOM      9  C12 <0> d           0.851  -2.682   1.956  0.00  0.00     0.001 A 
ATOM     10  C11 <0> d          -0.201  -3.290   2.615  0.00  0.00     0.000 A 
ATOM     11  C10 <0> d          -1.176  -2.519   3.221  0.00  0.00     0.001 A 
ATOM     12  C9  <0> d          -1.097  -1.140   3.169  0.00  0.00     0.007 A 
ENDBRANCH   6   7
ENDBRANCH   1   6
BRANCH   1  13
ATOM     13  C14 <0> d          -0.720   2.985   1.224  0.00  0.00     0.204 C 
ATOM     14  O15 <0> d          -1.399   3.581   2.043  0.00  0.00    -0.646 OA
ATOM     15  O16 <0> d          -0.057   3.608   0.413  0.00  0.00    -0.646 OA
ENDBRANCH   1  13
TORSDOF 4
