REMARK  1 active torsions:
REMARK  status: ('A' for Active; 'I' for Inactive)
REMARK    1  A    between atoms: C7_7  and  C8_8 
ROOT
ATOM      1  C1  ZIN AC000      -0.018   1.461   0.010  0.00  0.00     0.155 C 
ATOM      2  N2  ZIN AC000       0.002  -0.004   0.002  0.00  0.00    -0.360 N 
ATOM      3  C3  ZIN AC000       0.005  -0.660  -1.171  0.00  0.00     0.090 A 
ATOM      4  C4  ZIN AC000       0.024  -2.021  -1.210  0.00  0.00     0.017 A 
ATOM      5  C5  ZIN AC000       0.040  -2.752  -0.022  0.00  0.00     0.004 A 
ATOM      6  C6  ZIN AC000       0.037  -2.075   1.185  0.00  0.00     0.031 A 
ATOM      7  C7  ZIN AC000       0.022  -0.681   1.182  0.00  0.00     0.053 A 
ENDROOT
BRANCH   7   8
ATOM      8  C8  ZIN AC000       0.019   0.054   2.449  0.00  0.00     0.178 C 
ATOM      9  N9  ZIN AC000       0.029  -0.593   3.577  0.00  0.00    -0.108 NA
ATOM     10  O10 ZIN AC000       0.026   0.018   4.630  0.00  0.00    -0.062 OA
ENDBRANCH   7   8
TORSDOF 1
