REMARK  5 active torsions:
REMARK  status: ('A' for Active; 'I' for Inactive)
REMARK    1  A    between atoms: N1_1  and  C2_2 
REMARK    2  A    between atoms: C4_4  and  N5_5 
REMARK    3  A    between atoms: C7_7  and  C8_8 
REMARK    4  A    between atoms: C17_17  and  N18_18 
REMARK    5  A    between atoms: C20_20  and  O21_21 
ROOT
ATOM      1  N5  ZIN AC000      -2.527  -2.488  -0.468  0.00  0.00    -0.300 N 
ATOM      2  C6  ZIN AC000      -2.635  -3.824  -0.423  0.00  0.00     0.121 A 
ATOM      3  C7  ZIN AC000      -3.841  -4.456  -0.190  0.00  0.00     0.107 A 
ATOM      4  C11 ZIN AC000      -5.047  -3.636   0.017  0.00  0.00     0.203 A 
ATOM      5  O12 ZIN AC000      -6.133  -4.148   0.227  0.00  0.00    -0.286 OA
ATOM      6  C13 ZIN AC000      -4.886  -2.174  -0.038  0.00  0.00     0.047 A 
ATOM      7  C14 ZIN AC000      -5.977  -1.321   0.148  0.00  0.00     0.062 A 
ATOM      8  C15 ZIN AC000      -5.799   0.032   0.092  0.00  0.00     0.140 A 
ATOM      9  F16 ZIN AC000      -6.854   0.857   0.272  0.00  0.00    -0.204 F 
ATOM     10  C17 ZIN AC000      -4.532   0.567  -0.151  0.00  0.00     0.074 A 
ATOM     11  C23 ZIN AC000      -3.440  -0.266  -0.337  0.00  0.00     0.086 A 
ATOM     12 Cl24 ZIN AC000      -1.870   0.411  -0.638  0.00  0.00    -0.080 Cl
ATOM     13  C25 ZIN AC000      -3.605  -1.645  -0.279  0.00  0.00     0.078 A 
ENDROOT
BRANCH   1  14
ATOM     14  C4  ZIN AC000      -1.271  -1.926  -0.709  0.00  0.00     0.175 A 
ATOM     15  N3  ZIN AC000      -0.913  -1.631  -1.950  0.00  0.00    -0.207 NA
ATOM     16  C2  ZIN AC000       0.267  -1.097  -2.222  0.00  0.00     0.162 A 
ATOM     17  C29 ZIN AC000       1.179  -0.832  -1.204  0.00  0.00     0.164 A 
ATOM     18  C28 ZIN AC000       0.834  -1.123   0.106  0.00  0.00     0.092 A 
ATOM     19  F30 ZIN AC000       2.382  -0.287  -1.489  0.00  0.00    -0.202 F 
ATOM     20  C26 ZIN AC000      -0.412  -1.682   0.355  0.00  0.00     0.165 A 
ATOM     21  F27 ZIN AC000      -0.784  -1.986   1.618  0.00  0.00    -0.202 F 
BRANCH  16  22
ATOM     22  N1  ZIN AC000       0.602  -0.804  -3.542  0.00  0.00    -0.381 N 
ATOM     23  H31 ZIN AC000       1.436  -0.350  -3.741  0.00  0.00     0.157 HD
ATOM     24  H32 ZIN AC000       0.004  -1.057  -4.262  0.00  0.00     0.157 HD
ENDBRANCH  16  22
ENDBRANCH   1  14
BRANCH   3  25
ATOM     25  C8  ZIN AC000      -3.919  -5.920  -0.149  0.00  0.00     0.214 C 
ATOM     26  O9  ZIN AC000      -2.910  -6.592  -0.323  0.00  0.00    -0.644 OA
ATOM     27  O10 ZIN AC000      -4.993  -6.470   0.058  0.00  0.00    -0.644 OA
ENDBRANCH   3  25
BRANCH  10  28
ATOM     28  N18 ZIN AC000      -4.364   1.950  -0.205  0.00  0.00    -0.275 NA
ATOM     29  C22 ZIN AC000      -3.705   2.353  -1.461  0.00  0.00     0.128 C 
ATOM     30  C20 ZIN AC000      -4.684   3.534  -1.530  0.00  0.00     0.145 C 
ATOM     31  C19 ZIN AC000      -5.586   2.612  -0.699  0.00  0.00     0.128 C 
BRANCH  30  32
ATOM     32  O21 ZIN AC000      -4.242   4.702  -0.834  0.00  0.00    -0.393 OA
ATOM     33  H38 ZIN AC000      -3.673   5.281  -1.360  0.00  0.00     0.210 HD
ENDBRANCH  30  32
ENDBRANCH  10  28
TORSDOF 5
