REMARK  0 active torsions:
REMARK  status: ('A' for Active; 'I' for Inactive)
ROOT
ATOM      1  C1  ZIN AC000      -0.018   1.465   0.010  0.00  0.00     0.269 C 
ATOM      2  N2  ZIN AC000       0.002  -0.004   0.002  0.00  0.00    -0.074 N 
ATOM      3  H3  ZIN AC000      -0.945  -0.351   0.009  0.00  0.00     0.279 HD
ATOM      4  C4  ZIN AC000       0.706  -0.487   1.196  0.00  0.00     0.238 C 
ATOM      5  C5  ZIN AC000       0.580  -2.013   1.281  0.00  0.00     0.062 C 
ATOM      6  C6  ZIN AC000       1.075  -2.602  -0.024  0.00  0.00    -0.065 C 
ATOM      7  C7  ZIN AC000       1.945  -3.622  -0.038  0.00  0.00    -0.011 C 
ATOM      8  C8  ZIN AC000       2.466  -4.234   1.226  0.00  0.00    -0.004 A 
ATOM      9  C9  ZIN AC000       3.829  -4.409   1.473  0.00  0.00     0.062 A 
ATOM     10  S10 ZIN AC000       4.021  -5.146   3.061  0.00  0.00    -0.098 SA
ATOM     11  C11 ZIN AC000       2.337  -5.191   3.311  0.00  0.00     0.051 A 
ATOM     12  C12 ZIN AC000       1.676  -4.685   2.271  0.00  0.00     0.021 A 
ATOM     13  C13 ZIN AC000       4.892  -4.072   0.611  0.00  0.00     0.171 C 
ATOM     14  O14 ZIN AC000       6.019  -4.417   0.905  0.00  0.00    -0.291 OA
ATOM     15  C15 ZIN AC000       4.677  -3.299  -0.659  0.00  0.00     0.123 C 
ATOM     16  C16 ZIN AC000       3.805  -4.085  -1.606  0.00  0.00    -0.040 A 
ATOM     17  C17 ZIN AC000       4.319  -4.671  -2.739  0.00  0.00     0.008 A 
ATOM     18  C18 ZIN AC000       3.478  -5.366  -3.594  0.00  0.00     0.001 A 
ATOM     19  C19 ZIN AC000       2.127  -5.470  -3.318  0.00  0.00     0.001 A 
ATOM     20  C20 ZIN AC000       1.604  -4.892  -2.176  0.00  0.00     0.013 A 
ATOM     21  C21 ZIN AC000       2.441  -4.212  -1.311  0.00  0.00    -0.018 A 
ATOM     22  C22 ZIN AC000       0.552  -1.999  -1.311  0.00  0.00     0.062 C 
ATOM     23  C23 ZIN AC000       0.683  -0.474  -1.210  0.00  0.00     0.238 C 
ENDROOT
TORSDOF 0
