REMARK  13 active torsions:
REMARK  status: ('A' for Active; 'I' for Inactive)
REMARK    1  A    between atoms: C2_2  and  C3_3 
REMARK    2  A    between atoms: C3_3  and  C4_4 
REMARK    3  A    between atoms: C4_4  and  O5_5 
REMARK    4  A    between atoms: O5_5  and  C6_6 
REMARK    5  A    between atoms: C6_6  and  C7_7 
REMARK    6  A    between atoms: C7_7  and  O8_8 
REMARK    7  A    between atoms: O8_8  and  C9_9 
REMARK    8  A    between atoms: C9_9  and  C10_10 
REMARK    9  A    between atoms: C10_10  and  O11_11 
REMARK   10  A    between atoms: O11_11  and  C12_12 
REMARK   11  A    between atoms: C12_12  and  C13_13 
REMARK   12  A    between atoms: C18_18  and  C19_19 
REMARK   13  A    between atoms: C19_19  and  C20_20 
ROOT
ATOM      1  C13 <0> d          -2.114  -4.932   8.226  0.00  0.00    -0.025 A 
ATOM      2  C14 <0> d          -2.236  -5.882   7.229  0.00  0.00     0.049 A 
ATOM      3  C15 <0> d          -3.390  -6.643   7.133  0.00  0.00     0.105 A 
ATOM      4  C16 <0> d          -4.425  -6.448   8.043  0.00  0.00     0.105 A 
ATOM      5  C17 <0> d          -4.296  -5.495   9.041  0.00  0.00     0.047 A 
ATOM      6  C18 <0> d          -3.140  -4.743   9.134  0.00  0.00    -0.047 A 
ATOM      7  O22 <0> d          -5.440  -7.309   7.740  0.00  0.00    -0.323 OA
ATOM      8  C23 <0> d          -5.185  -7.745   6.392  0.00  0.00     0.352 C 
ATOM      9  O24 <0> d          -3.756  -7.625   6.259  0.00  0.00    -0.323 OA
ENDROOT
BRANCH   1  10
ATOM     10  C12 <0> d          -0.858  -4.106   8.328  0.00  0.00     0.207 C 
BRANCH  10  11
ATOM     11  O11 <0> d           0.046  -4.483   7.287  0.00  0.00    -0.385 OA
BRANCH  11  12
ATOM     12  C10 <0> d           1.276  -3.755   7.294  0.00  0.00     0.194 C 
BRANCH  12  13
ATOM     13  C9  <0> d           2.160  -4.238   6.143  0.00  0.00     0.193 C 
BRANCH  13  14
ATOM     14  O8  <0> d           1.538  -3.919   4.897  0.00  0.00    -0.387 OA
BRANCH  14  15
ATOM     15  C7  <0> d           2.287  -4.330   3.751  0.00  0.00     0.193 C 
BRANCH  15  16
ATOM     16  C6  <0> d           1.531  -3.938   2.480  0.00  0.00     0.193 C 
BRANCH  16  17
ATOM     17  O5  <0> d           1.454  -2.514   2.391  0.00  0.00    -0.389 OA
BRANCH  17  18
ATOM     18  C4  <0> d           0.763  -2.041   1.233  0.00  0.00     0.167 C 
BRANCH  18  19
ATOM     19  C3  <0> d           0.742  -0.511   1.242  0.00  0.00     0.026 C 
BRANCH  19  20
ATOM     20  C2  <0> d           0.002  -0.004   0.002  0.00  0.00    -0.002 C 
ATOM     21  C1  <0> d          -0.019   1.526   0.010  0.00  0.00     0.005 C 
ENDBRANCH  19  20
ENDBRANCH  18  19
ENDBRANCH  17  18
ENDBRANCH  16  17
ENDBRANCH  15  16
ENDBRANCH  14  15
ENDBRANCH  13  14
ENDBRANCH  12  13
ENDBRANCH  11  12
ENDBRANCH  10  11
ENDBRANCH   1  10
BRANCH   6  22
ATOM     22  C19 <0> d          -3.002  -3.708  10.219  0.00  0.00     0.039 C 
BRANCH  22  23
ATOM     23  C20 <0> d          -3.413  -2.339   9.673  0.00  0.00     0.000 C 
ATOM     24  C21 <0> d          -3.272  -1.287  10.776  0.00  0.00     0.005 C 
ENDBRANCH  22  23
ENDBRANCH   6  22
TORSDOF 13
