REMARK  10 active torsions:
REMARK  status: ('A' for Active; 'I' for Inactive)
REMARK    1  A    between atoms: C2_2  and  C4_4 
REMARK    2  A    between atoms: C4_4  and  O6_5 
REMARK    3  A    between atoms: C4_4  and  C7_6 
REMARK    4  A    between atoms: C7_6  and  O9_7 
REMARK    5  A    between atoms: C7_6  and  C10_8 
REMARK    6  A    between atoms: C10_8  and  O12_9 
REMARK    7  A    between atoms: C10_8  and  C13_10 
REMARK    8  A    between atoms: C13_10  and  O15_11 
REMARK    9  A    between atoms: C13_10  and  C16_12 
REMARK   10  A    between atoms: C16_12  and  O17_13 
ROOT
ATOM      1  C7  <0> d          -1.483   2.739  -1.283  0.00  0.00     0.188 C 
ENDROOT
BRANCH   1   2
ATOM      2  C4  <0> d          -1.330   1.951   0.019  0.00  0.00     0.250 C 
BRANCH   2   3
ATOM      3  C2  <0> d          -0.015   1.215   0.009  0.00  0.00     0.205 C 
ATOM      4  O1  <0> d           0.002  -0.004   0.002  0.00  0.00    -0.646 OA
ATOM      5  O3  <0> d           1.033   1.839   0.002  0.00  0.00    -0.646 OA
ENDBRANCH   2   3
BRANCH   2   6
ATOM      6  O6  <0> d          -2.400   1.011   0.136  0.00  0.00    -0.382 OA
ATOM      7  H18 <0> d          -2.439   0.367  -0.584  0.00  0.00     0.210 HD
ENDBRANCH   2   6
ENDBRANCH   1   2
BRANCH   1   8
ATOM      8  O9  <0> d          -1.334   1.854  -2.396  0.00  0.00    -0.390 OA
ATOM      9  H19 <0> d          -1.982   1.137  -2.418  0.00  0.00     0.210 HD
ENDBRANCH   1   8
BRANCH   1  10
ATOM     10  C10 <0> d          -2.870   3.385  -1.328  0.00  0.00     0.180 C 
BRANCH  10  11
ATOM     11  O12 <0> d          -3.869   2.380  -1.149  0.00  0.00    -0.390 OA
ATOM     12  H20 <0> d          -3.856   1.687  -1.823  0.00  0.00     0.210 HD
ENDBRANCH  10  11
BRANCH  10  13
ATOM     13  C13 <0> d          -3.070   4.068  -2.682  0.00  0.00     0.173 C 
BRANCH  13  14
ATOM     14  O15 <0> d          -2.071   5.073  -2.861  0.00  0.00    -0.391 OA
ATOM     15  H21 <0> d          -2.084   5.766  -2.187  0.00  0.00     0.210 HD
ENDBRANCH  13  14
BRANCH  13  16
ATOM     16  C16 <0> d          -4.457   4.714  -2.727  0.00  0.00     0.198 C 
BRANCH  16  17
ATOM     17  O17 <0> d          -4.690   5.251  -4.030  0.00  0.00    -0.398 OA
ATOM     18  H24 <0> d          -5.552   5.678  -4.131  0.00  0.00     0.209 HD
ENDBRANCH  16  17
ENDBRANCH  13  16
ENDBRANCH  10  13
ENDBRANCH   1  10
TORSDOF 10
