REMARK  8 active torsions:
REMARK  status: ('A' for Active; 'I' for Inactive)
REMARK       I    between atoms: N2_2  and  C4_4 
REMARK    1  A    between atoms: C4_4  and  C6_6 
REMARK    2  A    between atoms: C6_6  and  C7_7 
REMARK    3  A    between atoms: C6_6  and  C24_24 
REMARK    4  A    between atoms: C6_6  and  C30_30 
REMARK    5  A    between atoms: C7_7  and  C8_8 
REMARK    6  A    between atoms: C8_8  and  N9_9 
REMARK    7  A    between atoms: C13_13  and  O14_14 
REMARK    8  A    between atoms: C13_13  and  C15_15 
ROOT
ATOM      1  C6  <0> d          -0.154  -2.239  -1.107  0.00  0.00     0.096 C 
ENDROOT
BRANCH   1   2
ATOM      2  C4  <0> d          -0.156  -0.751  -1.351  0.00  0.00     0.237 C 
ATOM      3  N2  <0> d          -0.171   0.102  -0.308  0.00  0.00    -0.360 N 
ATOM      4  C1  <0> d          -0.291   1.543  -0.543  0.00  0.00     0.152 C 
ATOM      5  C3  <0> d          -0.066  -0.411   1.060  0.00  0.00     0.152 C 
ATOM      6  O5  <0> d          -0.145  -0.323  -2.486  0.00  0.00    -0.272 OA
ENDBRANCH   1   2
BRANCH   1   7
ATOM      7  C7  <0> d          -1.481  -2.653  -0.468  0.00  0.00     0.057 C 
BRANCH   7   8
ATOM      8  C8  <0> d          -2.641  -2.159  -1.335  0.00  0.00     0.236 C 
BRANCH   8   9
ATOM      9  N9  <0> d          -3.913  -2.431  -0.652  0.00  0.00    -0.071 N 
ATOM     10  H10 <0> d          -3.969  -3.413  -0.426  0.00  0.00     0.279 HD
ATOM     11  C23 <0> d          -3.982  -1.641   0.583  0.00  0.00     0.238 C 
ATOM     12  C22 <0> d          -5.268  -1.982   1.340  0.00  0.00     0.071 C 
ATOM     13  C13 <0> d          -6.474  -1.655   0.456  0.00  0.00     0.088 C 
ATOM     14  C12 <0> d          -6.354  -2.426  -0.862  0.00  0.00     0.071 C 
ATOM     15  C11 <0> d          -5.028  -2.070  -1.536  0.00  0.00     0.238 C 
BRANCH  13  16
ATOM     16  O14 <0> d          -6.503  -0.252   0.186  0.00  0.00    -0.385 OA
ATOM     17  H50 <0> d          -6.579   0.299   0.978  0.00  0.00     0.211 HD
ENDBRANCH  13  16
BRANCH  13  18
ATOM     18  C15 <0> d          -7.743  -2.058   1.162  0.00  0.00    -0.024 A 
ATOM     19  C21 <0> d          -8.398  -1.154   1.977  0.00  0.00     0.012 A 
ATOM     20  C20 <0> d          -9.564  -1.522   2.621  0.00  0.00     0.024 A 
ATOM     21  C18 <0> d         -10.070  -2.799   2.459  0.00  0.00     0.034 A 
ATOM     22  C17 <0> d          -9.411  -3.706   1.647  0.00  0.00     0.024 A 
ATOM     23 Cl19 <0> d         -11.531  -3.264   3.273  0.00  0.00    -0.084 Cl
ATOM     24  C16 <0> d          -8.248  -3.335   1.000  0.00  0.00     0.012 A 
ENDBRANCH  13  18
ENDBRANCH   8   9
ENDBRANCH   7   8
ENDBRANCH   1   7
BRANCH   1  25
ATOM     25  C24 <0> d           0.020  -2.962  -2.418  0.00  0.00    -0.036 A 
ATOM     26  C29 <0> d           0.999  -3.929  -2.549  0.00  0.00     0.009 A 
ATOM     27  C28 <0> d           1.155  -4.595  -3.750  0.00  0.00     0.001 A 
ATOM     28  C27 <0> d           0.338  -4.289  -4.822  0.00  0.00     0.000 A 
ATOM     29  C26 <0> d          -0.638  -3.319  -4.692  0.00  0.00     0.001 A 
ATOM     30  C25 <0> d          -0.797  -2.655  -3.490  0.00  0.00     0.009 A 
ENDBRANCH   1  25
BRANCH   1  31
ATOM     31  C30 <0> d           0.982  -2.594  -0.183  0.00  0.00    -0.036 A 
ATOM     32  C35 <0> d           2.271  -2.197  -0.487  0.00  0.00     0.009 A 
ATOM     33  C34 <0> d           3.312  -2.519   0.364  0.00  0.00     0.001 A 
ATOM     34  C33 <0> d           3.065  -3.247   1.513  0.00  0.00     0.000 A 
ATOM     35  C32 <0> d           1.778  -3.649   1.814  0.00  0.00     0.001 A 
ATOM     36  C31 <0> d           0.736  -3.323   0.966  0.00  0.00     0.009 A 
ENDBRANCH   1  31
TORSDOF 8
