REMARK  11 active torsions:
REMARK  status: ('A' for Active; 'I' for Inactive)
REMARK    1  A    between atoms: C2_2  and  N3_3 
REMARK    2  A    between atoms: N3_3  and  C4_4 
REMARK    3  A    between atoms: N3_3  and  C6_6 
REMARK    4  A    between atoms: C6_6  and  C7_7 
REMARK    5  A    between atoms: C8_8  and  C9_9 
REMARK    6  A    between atoms: C9_9  and  O10_10 
REMARK    7  A    between atoms: O10_10  and  C11_11 
REMARK    8  A    between atoms: C11_11  and  C13_13 
REMARK    9  A    between atoms: C13_13  and  O14_14 
REMARK   10  A    between atoms: C13_13  and  C15_15 
REMARK   11  A    between atoms: C13_13  and  C21_21 
ROOT
ATOM      1  C13 ZIN AC000      -0.607   5.857  -6.101  0.00  0.00     0.176 C 
ENDROOT
BRANCH   1   2
ATOM      2  C11 ZIN AC000      -0.248   5.239  -4.774  0.00  0.00     0.299 C 
ATOM      3  O12 ZIN AC000       0.161   5.935  -3.874  0.00  0.00    -0.261 OA
BRANCH   2   4
ATOM      4  O10 ZIN AC000      -0.382   3.916  -4.591  0.00  0.00    -0.307 OA
BRANCH   4   5
ATOM      5  C9  ZIN AC000      -0.018   3.390  -3.288  0.00  0.00     0.272 C 
BRANCH   5   6
ATOM      6  C8  ZIN AC000      -0.228   1.934  -3.271  0.00  0.00    -0.078 C 
ATOM      7  C7  ZIN AC000      -0.395   0.772  -3.257  0.00  0.00    -0.074 C 
BRANCH   7   8
ATOM      8  C6  ZIN AC000      -0.606  -0.685  -3.239  0.00  0.00     0.365 C 
BRANCH   8   9
ATOM      9  N3  ZIN AC000      -0.237  -1.217  -1.921  0.00  0.00     0.098 N 
BRANCH   9  10
ATOM     10  C2  ZIN AC000      -1.243  -0.865  -0.910  0.00  0.00     0.269 C 
ATOM     11  C1  ZIN AC000      -2.562  -1.568  -1.238  0.00  0.00     0.037 C 
ENDBRANCH   9  10
BRANCH   9  12
ATOM     12  C4  ZIN AC000      -0.034  -2.671  -1.978  0.00  0.00     0.269 C 
ATOM     13  C5  ZIN AC000       0.586  -3.152  -0.664  0.00  0.00     0.037 C 
ENDBRANCH   9  12
ENDBRANCH   8   9
ENDBRANCH   7   8
ENDBRANCH   5   6
ENDBRANCH   4   5
ENDBRANCH   2   4
ENDBRANCH   1   2
BRANCH   1  14
ATOM     14  O14 ZIN AC000      -1.725   5.165  -6.661  0.00  0.00    -0.374 OA
ATOM     15  H41 ZIN AC000      -2.519   5.190  -6.111  0.00  0.00     0.211 HD
ENDBRANCH   1  14
BRANCH   1  16
ATOM     16  C15 ZIN AC000      -0.964   7.308  -5.899  0.00  0.00    -0.014 A 
ATOM     17  C20 ZIN AC000      -2.265   7.733  -6.093  0.00  0.00     0.011 A 
ATOM     18  C19 ZIN AC000      -2.593   9.062  -5.904  0.00  0.00     0.001 A 
ATOM     19  C18 ZIN AC000      -1.618   9.968  -5.530  0.00  0.00     0.000 A 
ATOM     20  C17 ZIN AC000      -0.316   9.544  -5.341  0.00  0.00     0.001 A 
ATOM     21  C16 ZIN AC000       0.011   8.214  -5.526  0.00  0.00     0.011 A 
ENDBRANCH   1  16
BRANCH   1  22
ATOM     22  C21 ZIN AC000       0.587   5.753  -7.052  0.00  0.00     0.035 C 
ATOM     23  C26 ZIN AC000       0.240   6.426  -8.381  0.00  0.00     0.008 C 
ATOM     24  C25 ZIN AC000       1.434   6.322  -9.332  0.00  0.00     0.001 C 
ATOM     25  C24 ZIN AC000       1.763   4.848  -9.578  0.00  0.00     0.000 C 
ATOM     26  C23 ZIN AC000       2.110   4.175  -8.248  0.00  0.00     0.001 C 
ATOM     27  C22 ZIN AC000       0.916   4.279  -7.297  0.00  0.00     0.008 C 
ENDBRANCH   1  22
TORSDOF 11
