REMARK  5 active torsions:
REMARK  status: ('A' for Active; 'I' for Inactive)
REMARK    1  A    between atoms: C4_4  and  O6_5 
REMARK    2  A    between atoms: C25_22  and  O26_23 
REMARK    3  A    between atoms: C25_22  and  C27_24 
REMARK    4  A    between atoms: C27_24  and  C29_26 
REMARK    5  A    between atoms: C29_26  and  O30_27 
ROOT
ATOM      1  C1  <0> d          -0.629   1.549  -0.209  0.00  0.00     0.019 C 
ATOM      2  C2  <0> d          -0.786   0.027  -0.191  0.00  0.00     0.001 C 
ATOM      3  C3  <0> d          -2.143  -0.342   0.378  0.00  0.00     0.048 C 
ATOM      4  C4  <0> d          -2.262   0.343   1.748  0.00  0.00     0.160 C 
ATOM      5  C7  <0> d          -1.129  -0.066   2.685  0.00  0.00     0.144 C 
ATOM      6  F8  <0> d          -1.256  -1.426   2.986  0.00  0.00    -0.239 F 
ATOM      7  C9  <0> d           0.249   0.167   2.049  0.00  0.00     0.034 C 
ATOM      8  C11 <0> d           1.331  -0.355   2.999  0.00  0.00     0.013 C 
ATOM      9  C12 <0> d           1.322   0.484   4.279  0.00  0.00     0.036 C 
ATOM     10  C13 <0> d          -0.076   0.459   4.870  0.00  0.00    -0.065 C 
ATOM     11  C14 <0> d          -0.196   0.183   6.168  0.00  0.00     0.053 C 
ATOM     12  C15 <0> d          -1.522   0.163   6.794  0.00  0.00     0.149 C 
ATOM     13  O16 <0> d          -1.731  -0.436   7.829  0.00  0.00    -0.293 OA
ATOM     14  C17 <0> d          -2.618   0.930   6.080  0.00  0.00     0.084 C 
ATOM     15  C18 <0> d          -2.593   0.502   4.614  0.00  0.00     0.025 C 
ATOM     16  C19 <0> d          -1.234   0.744   3.983  0.00  0.00     0.019 C 
ATOM     17  C20 <0> d          -1.148   2.220   3.592  0.00  0.00     0.023 C 
ATOM     18  C21 <0> d           0.285  -0.602   0.740  0.00  0.00     0.005 C 
ATOM     19  C23 <0> d           1.568  -0.449  -0.086  0.00  0.00     0.009 C 
ATOM     20  C24 <0> d           1.101  -0.806  -1.523  0.00  0.00     0.047 C 
ATOM     21  C25 <0> d          -0.440  -0.545  -1.561  0.00  0.00     0.128 C 
ENDROOT
BRANCH  21  22
ATOM     22  O26 <0> d          -1.145  -1.770  -1.777  0.00  0.00    -0.381 OA
ATOM     23  H53 <0> d          -0.934  -2.203  -2.615  0.00  0.00     0.211 HD
ENDBRANCH  21  22
BRANCH  21  24
ATOM     24  C27 <0> d          -0.775   0.448  -2.644  0.00  0.00     0.184 C 
ATOM     25  O28 <0> d           0.059   1.237  -3.018  0.00  0.00    -0.292 OA
BRANCH  24  26
ATOM     26  C29 <0> d          -2.151   0.457  -3.259  0.00  0.00     0.245 C 
BRANCH  26  27
ATOM     27  O30 <0> d          -2.221   1.481  -4.253  0.00  0.00    -0.393 OA
ATOM     28  H56 <0> d          -3.081   1.544  -4.692  0.00  0.00     0.209 HD
ENDBRANCH  26  27
ENDBRANCH  24  26
ENDBRANCH  21  24
BRANCH   4  29
ATOM     29  O6  <0> d          -2.225   1.760   1.565  0.00  0.00    -0.392 OA
ATOM     30  H36 <0> d          -2.936   2.103   1.007  0.00  0.00     0.210 HD
ENDBRANCH   4  29
TORSDOF 5
