REMARK  3 active torsions:
REMARK  status: ('A' for Active; 'I' for Inactive)
REMARK       I    between atoms: C2_2  and  N4_4 
REMARK    1  A    between atoms: N4_4  and  C5_5 
REMARK    2  A    between atoms: C8_8  and  S9_9 
REMARK    3  A    between atoms: S9_9  and  N10_10 
ROOT
ATOM      1  C5  <0> d          -1.137  -2.084   0.002  0.00  0.00     0.197 A 
ATOM      2  N6  <0> d          -0.071  -2.827  -0.007  0.00  0.00    -0.122 NA
ATOM      3  N7  <0> d          -0.230  -4.080  -0.012  0.00  0.00    -0.126 NA
ATOM      4  C8  <0> d          -1.452  -4.509  -0.009  0.00  0.00     0.237 A 
ATOM      5  S13 <0> d          -2.515  -3.102   0.009  0.00  0.00    -0.015 SA
ENDROOT
BRANCH   4   6
ATOM      6  S9  <0> d          -1.960  -6.196  -0.014  0.00  0.00     0.282 S 
ATOM      7  O11 <0> d          -3.276  -6.217  -0.552  0.00  0.00    -0.199 OA
ATOM      8  O12 <0> d          -0.882  -6.938  -0.567  0.00  0.00    -0.199 OA
BRANCH   6   9
ATOM      9  N10 <0> d          -2.094  -6.673   1.566  0.00  0.00    -0.323 N 
ATOM     10  H18 <0> d          -2.737  -7.355   1.814  0.00  0.00     0.169 HD
ATOM     11  H19 <0> d          -1.530  -6.269   2.244  0.00  0.00     0.169 HD
ENDBRANCH   6   9
ENDBRANCH   4   6
BRANCH   1  12
ATOM     12  N4  <0> d          -1.156  -0.694   0.009  0.00  0.00    -0.305 N 
ATOM     13  C2  <0> d           0.002  -0.004   0.002  0.00  0.00     0.219 C 
ATOM     14  C1  <0> d          -0.018   1.503   0.010  0.00  0.00     0.117 C 
ATOM     15  O3  <0> d           1.060  -0.596  -0.011  0.00  0.00    -0.274 OA
ATOM     16  H17 <0> d          -2.002  -0.220   0.020  0.00  0.00     0.171 HD
ENDBRANCH   1  12
TORSDOF 3
