REMARK  9 active torsions:
REMARK  status: ('A' for Active; 'I' for Inactive)
REMARK       I    between atoms: N6_5  and  C7_6 
REMARK    1  A    between atoms: C7_6  and  C9_8 
REMARK    2  A    between atoms: C9_8  and  C11_9 
REMARK    3  A    between atoms: C9_8  and  N20_18 
REMARK    4  A    between atoms: C11_9  and  C12_10 
REMARK    5  A    between atoms: C12_10  and  C13_11 
REMARK    6  A    between atoms: C13_11  and  N14_12 
REMARK       I    between atoms: N14_12  and  C15_13 
REMARK       I    between atoms: C15_13  and  N16_14 
REMARK    7  A    between atoms: N20_18  and  S21_19 
REMARK    8  A    between atoms: S21_19  and  C24_22 
REMARK    9  A    between atoms: C36_33  and  C38_34 
ROOT
ATOM      1  C9  ZIN AC000      -0.581   0.683   4.302  0.00  0.00     0.185 C 
ENDROOT
BRANCH   1   2
ATOM      2  C7  ZIN AC000       0.440  -0.424   4.249  0.00  0.00     0.244 C 
ATOM      3  N6  ZIN AC000       0.709  -1.037   3.079  0.00  0.00    -0.336 N 
ATOM      4  C5  ZIN AC000      -0.031  -0.682   1.860  0.00  0.00     0.127 C 
ATOM      5  C36 ZIN AC000       1.747  -2.073   2.998  0.00  0.00     0.188 C 
ATOM      6  C4  ZIN AC000      -0.621  -1.958   1.251  0.00  0.00     0.024 C 
ATOM      7  C2  ZIN AC000       0.499  -2.978   1.032  0.00  0.00    -0.015 C 
ATOM      8  C1  ZIN AC000       1.560  -2.378   0.107  0.00  0.00     0.010 C 
ATOM      9  C41 ZIN AC000       1.138  -3.334   2.376  0.00  0.00     0.040 C 
ATOM     10  O8  ZIN AC000       1.019  -0.764   5.258  0.00  0.00    -0.271 OA
BRANCH   5  11
ATOM     11  C38 ZIN AC000       2.258  -2.385   4.381  0.00  0.00     0.196 C 
ATOM     12  O39 ZIN AC000       1.565  -3.017   5.159  0.00  0.00    -0.646 OA
ATOM     13  O40 ZIN AC000       3.366  -2.006   4.721  0.00  0.00    -0.646 OA
ENDBRANCH   5  11
ENDBRANCH   1   2
BRANCH   1  14
ATOM     14  C11 ZIN AC000       0.039   1.974   3.762  0.00  0.00     0.037 C 
BRANCH  14  15
ATOM     15  C12 ZIN AC000      -1.034   3.062   3.685  0.00  0.00     0.023 C 
BRANCH  15  16
ATOM     16  C13 ZIN AC000      -0.415   4.352   3.145  0.00  0.00     0.138 C 
BRANCH  16  17
ATOM     17  N14 ZIN AC000      -1.443   5.394   3.071  0.00  0.00    -0.227 N 
ATOM     18  C15 ZIN AC000      -1.120   6.642   2.614  0.00  0.00     0.665 C 
ATOM     19  N16 ZIN AC000       0.129   6.910   2.236  0.00  0.00    -0.235 N 
ATOM     20  N17 ZIN AC000      -2.054   7.589   2.548  0.00  0.00    -0.235 N 
ATOM     21  H56 ZIN AC000       0.809   6.221   2.285  0.00  0.00     0.174 HD
ATOM     22  H57 ZIN AC000       0.357   7.796   1.912  0.00  0.00     0.174 HD
ATOM     23  H18 ZIN AC000      -2.963   7.393   2.823  0.00  0.00     0.174 HD
ATOM     24  H19 ZIN AC000      -1.825   8.474   2.224  0.00  0.00     0.174 HD
ATOM     25  H55 ZIN AC000      -2.352   5.198   3.347  0.00  0.00     0.177 HD
ENDBRANCH  16  17
ENDBRANCH  15  16
ENDBRANCH  14  15
ENDBRANCH   1  14
BRANCH   1  26
ATOM     26  N20 ZIN AC000      -1.006   0.889   5.689  0.00  0.00    -0.302 N 
ATOM     27  H58 ZIN AC000      -0.513   1.496   6.262  0.00  0.00     0.173 HD
BRANCH  26  28
ATOM     28  S21 ZIN AC000      -2.330   0.086   6.277  0.00  0.00     0.261 S 
ATOM     29  O22 ZIN AC000      -2.176  -1.274   5.895  0.00  0.00    -0.200 OA
ATOM     30  O23 ZIN AC000      -2.485   0.502   7.626  0.00  0.00    -0.200 OA
BRANCH  28  31
ATOM     31  C24 ZIN AC000      -3.736   0.691   5.405  0.00  0.00     0.101 A 
ATOM     32  C29 ZIN AC000      -4.164   2.005   5.605  0.00  0.00     0.038 A 
ATOM     33  C28 ZIN AC000      -5.271   2.471   4.917  0.00  0.00    -0.035 A 
ATOM     34  N30 ZIN AC000      -3.430   2.798   6.485  0.00  0.00    -0.291 NA
ATOM     35  C27 ZIN AC000      -5.943   1.632   4.042  0.00  0.00     0.009 A 
ATOM     36  C35 ZIN AC000      -5.787   3.877   5.092  0.00  0.00     0.045 C 
ATOM     37  C26 ZIN AC000      -5.517   0.334   3.850  0.00  0.00     0.002 A 
ATOM     38  C25 ZIN AC000      -4.411  -0.137   4.535  0.00  0.00     0.027 A 
ATOM     39  C32 ZIN AC000      -4.713   4.739   5.763  0.00  0.00    -0.001 C 
ATOM     40  C31 ZIN AC000      -4.175   3.961   6.971  0.00  0.00     0.097 C 
ATOM     41  C34 ZIN AC000      -5.327   6.060   6.230  0.00  0.00     0.011 C 
ATOM     42  H62 ZIN AC000      -3.074   2.250   7.254  0.00  0.00     0.127 HD
ENDBRANCH  28  31
ENDBRANCH  26  28
ENDBRANCH   1  26
TORSDOF 9
