REMARK  2 active torsions:
REMARK  status: ('A' for Active; 'I' for Inactive)
REMARK    1  A    between atoms: N2_2  and  C3_3 
REMARK    2  A    between atoms: C7_7  and  C8_8 
ROOT
ATOM      1  C3  ZIN AC000      -0.818  -1.318   0.388  0.00  0.00     0.119 C 
ATOM      2  C4  ZIN AC000      -1.118  -2.684   0.319  0.00  0.00     0.169 C 
ATOM      3  N5  ZIN AC000      -2.258  -3.251   0.102  0.00  0.00    -0.219 N 
ATOM      4  O6  ZIN AC000      -2.289  -4.453  -0.090  0.00  0.00    -0.085 OA
ATOM      5  C7  ZIN AC000      -3.518  -2.499   0.079  0.00  0.00     0.185 C 
ATOM      6  C14 ZIN AC000      -3.459  -1.475  -1.032  0.00  0.00    -0.000 A 
ATOM      7  C15 ZIN AC000      -4.225  -1.587  -2.168  0.00  0.00     0.035 A 
ATOM      8  C16 ZIN AC000      -4.141  -0.604  -3.143  0.00  0.00     0.034 A 
ATOM      9 Cl17 ZIN AC000      -5.100  -0.734  -4.585  0.00  0.00    -0.084 Cl
ATOM     10  C18 ZIN AC000      -3.297   0.479  -2.972  0.00  0.00     0.026 A 
ATOM     11  C19 ZIN AC000      -2.522   0.587  -1.831  0.00  0.00     0.032 A 
ATOM     12  C20 ZIN AC000      -2.599  -0.401  -0.865  0.00  0.00     0.042 A 
ATOM     13  N21 ZIN AC000      -1.800  -0.377   0.292  0.00  0.00    -0.341 N 
ATOM     14  H36 ZIN AC000      -1.943   0.281   0.990  0.00  0.00     0.167 HD
ENDROOT
BRANCH   5  15
ATOM     15  C8  ZIN AC000      -3.712  -1.800   1.400  0.00  0.00    -0.029 A 
ATOM     16  C13 ZIN AC000      -3.094  -2.287   2.537  0.00  0.00     0.009 A 
ATOM     17  C12 ZIN AC000      -3.269  -1.643   3.747  0.00  0.00     0.001 A 
ATOM     18  C11 ZIN AC000      -4.069  -0.518   3.823  0.00  0.00     0.000 A 
ATOM     19  C10 ZIN AC000      -4.691  -0.035   2.687  0.00  0.00     0.001 A 
ATOM     20  C9  ZIN AC000      -4.513  -0.676   1.476  0.00  0.00     0.009 A 
ENDBRANCH   5  15
BRANCH   1  21
ATOM     21  N2  ZIN AC000       0.471  -0.924   0.558  0.00  0.00    -0.380 N 
ATOM     22  C1  ZIN AC000       0.797   0.502   0.637  0.00  0.00     0.147 C 
ATOM     23  H25 ZIN AC000       1.176  -1.588   0.627  0.00  0.00     0.160 HD
ENDBRANCH   1  21
TORSDOF 2
