REMARK  4 active torsions:
REMARK  status: ('A' for Active; 'I' for Inactive)
REMARK    1  A    between atoms: N1_1  and  C5_5 
REMARK    2  A    between atoms: C5_5  and  C7_6 
REMARK    3  A    between atoms: C5_5  and  C14_13 
REMARK    4  A    between atoms: C7_6  and  C8_7 
ROOT
ATOM      1  C5  <0> d          -0.699   1.479   1.216  0.00  0.00     0.289 C 
ENDROOT
BRANCH   1   2
ATOM      2  N1  <0> d          -0.012   1.005   0.008  0.00  0.00    -0.065 N 
ATOM      3  H2  <0> d           0.002  -0.004   0.002  0.00  0.00     0.275 HD
ATOM      4  H3  <0> d           0.935   1.354   0.000  0.00  0.00     0.275 HD
ATOM      5  H4  <0> d          -0.500   1.339  -0.810  0.00  0.00     0.275 HD
ENDBRANCH   1   2
BRANCH   1   6
ATOM      6  C7  <0> d          -2.135   0.949   1.227  0.00  0.00     0.102 C 
BRANCH   6   7
ATOM      7  C8  <0> d          -2.899   1.546   0.074  0.00  0.00     0.028 A 
ATOM      8  N13 <0> d          -3.087   0.983  -1.160  0.00  0.00    -0.355 N 
ATOM      9  C12 <0> d          -3.828   1.847  -1.885  0.00  0.00     0.180 A 
ATOM     10  H21 <0> d          -2.755   0.120  -1.455  0.00  0.00     0.166 HD
ATOM     11  N10 <0> d          -4.083   2.897  -1.153  0.00  0.00    -0.360 N 
ATOM     12  C9  <0> d          -3.524   2.739   0.056  0.00  0.00     0.114 A 
ATOM     13  H11 <0> d          -4.595   3.669  -1.438  0.00  0.00     0.166 HD
ENDBRANCH   6   7
ENDBRANCH   1   6
BRANCH   1  14
ATOM     14  C14 <0> d           0.030   0.979   2.437  0.00  0.00     0.204 C 
ATOM     15  O15 <0> d           1.029   0.293   2.312  0.00  0.00    -0.646 OA
ATOM     16  O16 <0> d          -0.380   1.262   3.550  0.00  0.00    -0.646 OA
ENDBRANCH   1  14
TORSDOF 4
