REMARK  9 active torsions:
REMARK  status: ('A' for Active; 'I' for Inactive)
REMARK    1  A    between atoms: O2_2  and  C3_3 
REMARK    2  A    between atoms: C8_8  and  O9_9 
REMARK    3  A    between atoms: C14_13  and  O16_14 
REMARK    4  A    between atoms: O16_14  and  C17_15 
REMARK    5  A    between atoms: C17_15  and  C19_17 
REMARK    6  A    between atoms: C19_17  and  N21_18 
REMARK    7  A    between atoms: C19_17  and  C22_19 
REMARK    8  A    between atoms: C25_22  and  C27_23 
REMARK    9  A    between atoms: C27_23  and  C28_24 
ROOT
ATOM      1  C3  ZIN AC000       0.606  -0.608  -1.056  0.00  0.00     0.102 A 
ATOM      2  C4  ZIN AC000       1.172   0.156  -2.062  0.00  0.00     0.047 A 
ATOM      3  C5  ZIN AC000       1.790  -0.455  -3.143  0.00  0.00    -0.045 A 
ATOM      4  C6  ZIN AC000       1.845  -1.831  -3.219  0.00  0.00    -0.016 A 
ATOM      5  C7  ZIN AC000       1.276  -2.600  -2.214  0.00  0.00     0.049 A 
ATOM      6  C8  ZIN AC000       0.663  -1.996  -1.131  0.00  0.00     0.102 A 
ATOM      7  C11 ZIN AC000       2.514  -2.535  -4.368  0.00  0.00     0.259 C 
ATOM      8  C13 ZIN AC000       1.672  -3.736  -4.803  0.00  0.00     0.073 C 
ATOM      9  C14 ZIN AC000       2.381  -4.455  -5.955  0.00  0.00     0.140 C 
ATOM     10  C25 ZIN AC000       2.606  -3.470  -7.105  0.00  0.00     0.044 C 
ATOM     11  C31 ZIN AC000       3.417  -2.274  -6.599  0.00  0.00     0.280 C 
ATOM     12  N32 ZIN AC000       2.668  -1.630  -5.510  0.00  0.00     0.098 N 
ATOM     13  C33 ZIN AC000       3.323  -0.392  -5.068  0.00  0.00     0.278 C 
ATOM     14  C34 ZIN AC000       2.387   0.421  -4.215  0.00  0.00     0.069 C 
ENDROOT
BRANCH   9  15
ATOM     15  O16 ZIN AC000       1.560  -5.560  -6.415  0.00  0.00    -0.314 OA
BRANCH  15  16
ATOM     16  C17 ZIN AC000       1.753  -6.750  -5.824  0.00  0.00     0.292 C 
ATOM     17  O18 ZIN AC000       2.580  -6.864  -4.950  0.00  0.00    -0.263 OA
BRANCH  16  18
ATOM     18  C19 ZIN AC000       0.937  -7.944  -6.249  0.00  0.00     0.320 C 
BRANCH  18  19
ATOM     19  N21 ZIN AC000       1.622  -9.176  -5.838  0.00  0.00     0.092 N 
ATOM     20  H45 ZIN AC000       2.508  -9.273  -6.311  0.00  0.00     0.313 HD
ATOM     21  H46 ZIN AC000       1.742  -9.207  -4.837  0.00  0.00     0.313 HD
ENDBRANCH  18  19
BRANCH  18  22
ATOM     22  C22 ZIN AC000      -0.441  -7.881  -5.589  0.00  0.00     0.020 C 
ATOM     23  C23 ZIN AC000      -1.155  -6.597  -6.017  0.00  0.00     0.012 C 
ATOM     24  C24 ZIN AC000      -1.269  -9.093  -6.021  0.00  0.00     0.012 C 
ENDBRANCH  18  22
ENDBRANCH  16  18
ENDBRANCH  15  16
ENDBRANCH   9  15
BRANCH  10  25
ATOM     25  C27 ZIN AC000       3.371  -4.167  -8.232  0.00  0.00     0.012 C 
BRANCH  25  26
ATOM     26  C28 ZIN AC000       3.486  -3.222  -9.430  0.00  0.00    -0.022 C 
ATOM     27  C29 ZIN AC000       4.357  -3.870 -10.508  0.00  0.00     0.009 C 
ATOM     28  C30 ZIN AC000       2.093  -2.947  -9.998  0.00  0.00     0.009 C 
ENDBRANCH  25  26
ENDBRANCH  10  25
BRANCH   6  29
ATOM     29  O9  ZIN AC000       0.108  -2.756  -0.149  0.00  0.00    -0.353 OA
ATOM     30  C10 ZIN AC000       0.194  -4.175  -0.299  0.00  0.00     0.210 C 
ENDBRANCH   6  29
BRANCH   1  31
ATOM     31  O2  ZIN AC000       0.002  -0.004   0.002  0.00  0.00    -0.353 OA
ATOM     32  C1  ZIN AC000      -0.017   1.425   0.010  0.00  0.00     0.210 C 
ENDBRANCH   1  31
TORSDOF 9
