REMARK  4 active torsions:
REMARK  status: ('A' for Active; 'I' for Inactive)
REMARK    1  A    between atoms: N2_2  and  C5_5 
REMARK    2  A    between atoms: C5_5  and  C8_7 
REMARK    3  A    between atoms: C8_7  and  O10_8 
REMARK    4  A    between atoms: C8_7  and  C11_9 
ROOT
ATOM      1  C8  <0> d          -1.356  -2.038   0.130  0.00  0.00     0.181 C 
ENDROOT
BRANCH   1   2
ATOM      2  C5  <0> d          -1.376  -0.512   0.012  0.00  0.00     0.214 C 
ATOM      3  C7  <0> d          -2.078  -0.110  -1.286  0.00  0.00     0.043 C 
BRANCH   2   4
ATOM      4  N2  <0> d           0.002  -0.004   0.002  0.00  0.00    -0.072 N 
ATOM      5  C1  <0> d          -0.018   1.465   0.010  0.00  0.00     0.267 C 
ATOM      6  H3  <0> d           0.474  -0.330  -0.828  0.00  0.00     0.277 HD
ATOM      7  H4  <0> d           0.490  -0.338   0.820  0.00  0.00     0.277 HD
ENDBRANCH   2   4
ENDBRANCH   1   2
BRANCH   1   8
ATOM      8  O10 <0> d          -0.652  -2.592  -0.984  0.00  0.00    -0.389 OA
ATOM      9  H23 <0> d           0.267  -2.299  -1.053  0.00  0.00     0.210 HD
ENDBRANCH   1   8
BRANCH   1  10
ATOM     10  C11 <0> d          -0.665  -2.434   1.409  0.00  0.00    -0.028 A 
ATOM     11  C16 <0> d          -1.411  -2.787   2.518  0.00  0.00     0.010 A 
ATOM     12  C15 <0> d          -0.777  -3.154   3.690  0.00  0.00     0.001 A 
ATOM     13  C14 <0> d           0.604  -3.161   3.756  0.00  0.00     0.000 A 
ATOM     14  C13 <0> d           1.350  -2.804   2.648  0.00  0.00     0.001 A 
ATOM     15  C12 <0> d           0.716  -2.440   1.475  0.00  0.00     0.010 A 
ENDBRANCH   1  10
TORSDOF 4
