REMARK  6 active torsions:
REMARK  status: ('A' for Active; 'I' for Inactive)
REMARK    1  A    between atoms: O2_2  and  C3_3 
REMARK    2  A    between atoms: C8_8  and  O9_9 
REMARK    3  A    between atoms: C13_13  and  C15_14 
REMARK    4  A    between atoms: C15_14  and  C16_15 
REMARK    5  A    between atoms: N19_18  and  C20_19 
REMARK    6  A    between atoms: C20_19  and  C21_20 
ROOT
ATOM      1  C3  ZIN AC000      -1.199  -0.637   0.010  0.00  0.00     0.102 A 
ATOM      2  C4  ZIN AC000      -2.373   0.103   0.019  0.00  0.00     0.047 A 
ATOM      3  C5  ZIN AC000      -3.598  -0.532   0.028  0.00  0.00    -0.041 A 
ATOM      4  C6  ZIN AC000      -3.663  -1.927   0.027  0.00  0.00     0.019 A 
ATOM      5  C7  ZIN AC000      -2.471  -2.674   0.017  0.00  0.00     0.055 A 
ATOM      6  C8  ZIN AC000      -1.253  -2.031   0.003  0.00  0.00     0.102 A 
ATOM      7  C11 ZIN AC000      -5.060  -2.381   0.037  0.00  0.00     0.164 A 
ATOM      8  O12 ZIN AC000      -5.433  -3.535   0.039  0.00  0.00    -0.292 OA
ATOM      9  C13 ZIN AC000      -5.951  -1.163   0.045  0.00  0.00     0.065 A 
ATOM     10  C29 ZIN AC000      -4.996   0.039   0.039  0.00  0.00     0.052 A 
ENDROOT
BRANCH   9  11
ATOM     11  C15 ZIN AC000      -6.836  -1.145  -1.203  0.00  0.00     0.017 C 
BRANCH  11  12
ATOM     12  C16 ZIN AC000      -7.819  -2.316  -1.148  0.00  0.00    -0.010 C 
ATOM     13  C28 ZIN AC000      -8.620  -2.373  -2.451  0.00  0.00     0.035 C 
ATOM     14  C27 ZIN AC000      -9.644  -3.508  -2.366  0.00  0.00     0.273 C 
ATOM     15  N19 ZIN AC000     -10.543  -3.273  -1.228  0.00  0.00     0.092 N 
ATOM     16  C18 ZIN AC000      -9.802  -3.261   0.040  0.00  0.00     0.273 C 
ATOM     17  C17 ZIN AC000      -8.783  -2.119   0.026  0.00  0.00     0.035 C 
BRANCH  15  18
ATOM     18  C20 ZIN AC000     -11.623  -4.268  -1.197  0.00  0.00     0.311 C 
BRANCH  18  19
ATOM     19  C21 ZIN AC000     -12.199  -4.427  -2.581  0.00  0.00    -0.030 A 
ATOM     20  C26 ZIN AC000     -11.671  -5.369  -3.445  0.00  0.00     0.009 A 
ATOM     21  C25 ZIN AC000     -12.202  -5.518  -4.713  0.00  0.00     0.001 A 
ATOM     22  C24 ZIN AC000     -13.255  -4.720  -5.119  0.00  0.00     0.000 A 
ATOM     23  C23 ZIN AC000     -13.779  -3.775  -4.257  0.00  0.00     0.001 A 
ATOM     24  C22 ZIN AC000     -13.251  -3.629  -2.988  0.00  0.00     0.009 A 
ENDBRANCH  18  19
ENDBRANCH  15  18
ENDBRANCH  11  12
ENDBRANCH   9  11
BRANCH   6  25
ATOM     25  O9  ZIN AC000      -0.102  -2.756  -0.007  0.00  0.00    -0.353 OA
ATOM     26  C10 ZIN AC000      -0.231  -4.179  -0.003  0.00  0.00     0.210 C 
ENDBRANCH   6  25
BRANCH   1  27
ATOM     27  O2  ZIN AC000       0.002  -0.004   0.002  0.00  0.00    -0.353 OA
ATOM     28  C1  ZIN AC000      -0.017   1.425   0.010  0.00  0.00     0.210 C 
ENDBRANCH   1  27
TORSDOF 6
