REMARK  2 active torsions:
REMARK  status: ('A' for Active; 'I' for Inactive)
REMARK    1  A    between atoms: C2_2  and  C4_4 
REMARK    2  A    between atoms: C7_6  and  O9_7 
ROOT
ATOM      1  C4  <0> d          -1.330   1.951   0.019  0.00  0.00     0.288 C 
ATOM      2  C6  <0> d          -1.431   2.827   1.285  0.00  0.00     0.077 C 
ATOM      3  C7  <0> d          -2.922   2.684   1.690  0.00  0.00     0.146 C 
ATOM      4  C10 <0> d          -3.210   1.211   1.309  0.00  0.00     0.265 C 
ATOM      5  N11 <0> d          -2.444   0.986   0.061  0.00  0.00    -0.059 N 
ATOM      6  H12 <0> d          -3.046   1.123  -0.737  0.00  0.00     0.278 HD
ATOM      7  H13 <0> d          -2.077   0.046   0.053  0.00  0.00     0.278 HD
ENDROOT
BRANCH   1   8
ATOM      8  C2  <0> d          -0.015   1.215   0.009  0.00  0.00     0.204 C 
ATOM      9  O1  <0> d           0.002  -0.004   0.002  0.00  0.00    -0.646 OA
ATOM     10  O3  <0> d           1.033   1.839   0.002  0.00  0.00    -0.646 OA
ENDBRANCH   1   8
BRANCH   3  11
ATOM     11  O9  <0> d          -3.093   2.894   3.093  0.00  0.00    -0.394 OA
ATOM     12  H16 <0> d          -4.009   2.815   3.394  0.00  0.00     0.210 HD
ENDBRANCH   3  11
TORSDOF 2
