REMARK  9 active torsions:
REMARK  status: ('A' for Active; 'I' for Inactive)
REMARK    1  A    between atoms: C2_2  and  C3_3 
REMARK       I    between atoms: N7_7  and  C8_8 
REMARK       I    between atoms: C8_8  and  N10_10 
REMARK    2  A    between atoms: N10_10  and  C11_11 
REMARK    3  A    between atoms: C11_11  and  C12_12 
REMARK    4  A    between atoms: C12_12  and  C13_13 
REMARK    5  A    between atoms: C16_16  and  S17_17 
REMARK    6  A    between atoms: S17_17  and  N20_20 
REMARK    7  A    between atoms: C21_21  and  O22_22 
REMARK    8  A    between atoms: C21_21  and  N23_23 
REMARK    9  A    between atoms: N23_23  and  C24_24 
ROOT
ATOM      1  C13 ZIN AC000      -6.070  -1.681   6.347  0.00  0.00    -0.057 A 
ATOM      2  C14 ZIN AC000      -7.003  -0.715   6.676  0.00  0.00     0.009 A 
ATOM      3  C15 ZIN AC000      -8.036  -1.019   7.543  0.00  0.00     0.026 A 
ATOM      4  C16 ZIN AC000      -8.136  -2.289   8.081  0.00  0.00     0.081 A 
ATOM      5  C31 ZIN AC000      -7.204  -3.254   7.751  0.00  0.00     0.026 A 
ATOM      6  C32 ZIN AC000      -6.173  -2.951   6.881  0.00  0.00     0.009 A 
ENDROOT
BRANCH   4   7
ATOM      7  S17 ZIN AC000      -9.452  -2.676   9.187  0.00  0.00     0.286 S 
ATOM      8  O18 ZIN AC000      -9.008  -3.777   9.968  0.00  0.00    -0.198 OA
ATOM      9  O19 ZIN AC000      -9.878  -1.444   9.751  0.00  0.00    -0.198 OA
BRANCH   7  10
ATOM     10  N20 ZIN AC000     -10.714  -3.232   8.270  0.00  0.00    -0.117 NA
ATOM     11  C21 ZIN AC000     -11.825  -3.592   8.844  0.00  0.00     0.251 C 
BRANCH  11  12
ATOM     12  O22 ZIN AC000     -11.949  -3.513  10.187  0.00  0.00    -0.331 OA
ATOM     13  H52 ZIN AC000     -12.809  -3.803  10.521  0.00  0.00     0.221 HD
ENDBRANCH  11  12
BRANCH  11  14
ATOM     14  N23 ZIN AC000     -12.872  -4.053   8.084  0.00  0.00    -0.350 N 
ATOM     15  H53 ZIN AC000     -12.784  -4.110   7.120  0.00  0.00     0.163 HD
BRANCH  14  16
ATOM     16  C24 ZIN AC000     -14.123  -4.459   8.730  0.00  0.00     0.085 C 
ATOM     17  C30 ZIN AC000     -14.853  -5.467   7.840  0.00  0.00     0.025 C 
ATOM     18  C29 ZIN AC000     -15.163  -4.822   6.487  0.00  0.00     0.006 C 
ATOM     19  C27 ZIN AC000     -16.050  -3.594   6.699  0.00  0.00    -0.019 C 
ATOM     20  C26 ZIN AC000     -15.320  -2.586   7.590  0.00  0.00     0.006 C 
ATOM     21  C28 ZIN AC000     -16.360  -2.949   5.347  0.00  0.00     0.010 C 
ATOM     22  C25 ZIN AC000     -15.010  -3.231   8.942  0.00  0.00     0.025 C 
ENDBRANCH  14  16
ENDBRANCH  11  14
ENDBRANCH   7  10
ENDBRANCH   4   7
BRANCH   1  23
ATOM     23  C12 ZIN AC000      -4.944  -1.349   5.402  0.00  0.00     0.058 C 
BRANCH  23  24
ATOM     24  C11 ZIN AC000      -5.383  -1.640   3.965  0.00  0.00     0.129 C 
BRANCH  24  25
ATOM     25  N10 ZIN AC000      -4.288  -1.317   3.046  0.00  0.00    -0.342 N 
ATOM     26  C8  ZIN AC000      -4.448  -1.495   1.719  0.00  0.00     0.325 C 
ATOM     27  N7  ZIN AC000      -3.441  -1.198   0.874  0.00  0.00    -0.262 N 
ATOM     28  O9  ZIN AC000      -5.500  -1.923   1.286  0.00  0.00    -0.247 OA
ATOM     29  C6  ZIN AC000      -3.463  -1.338  -0.588  0.00  0.00     0.171 A 
ATOM     30  C33 ZIN AC000      -2.227  -0.726   1.214  0.00  0.00     0.258 A 
ATOM     31  C4  ZIN AC000      -2.105  -0.878  -1.066  0.00  0.00    -0.054 A 
ATOM     32  C3  ZIN AC000      -1.412  -0.526   0.013  0.00  0.00     0.013 A 
ATOM     33  C5  ZIN AC000      -1.626  -0.830  -2.494  0.00  0.00     0.046 C 
ATOM     34  O34 ZIN AC000      -1.863  -0.492   2.350  0.00  0.00    -0.267 OA
ATOM     35  H45 ZIN AC000      -3.449  -0.976   3.392  0.00  0.00     0.164 HD
BRANCH  32  36
ATOM     36  C2  ZIN AC000       0.002  -0.004   0.002  0.00  0.00     0.040 C 
ATOM     37  C1  ZIN AC000      -0.019   1.526   0.010  0.00  0.00     0.010 C 
ENDBRANCH  32  36
ENDBRANCH  24  25
ENDBRANCH  23  24
ENDBRANCH   1  23
TORSDOF 9
