REMARK  4 active torsions:
REMARK  status: ('A' for Active; 'I' for Inactive)
REMARK    1  A    between atoms: S2_2  and  C5_5 
REMARK    2  A    between atoms: C8_8  and  C9_9 
REMARK       I    between atoms: C9_9  and  N11_11 
REMARK    3  A    between atoms: N11_11  and  C12_12 
REMARK    4  A    between atoms: C17_17  and  C18_18 
ROOT
ATOM      1  C9  ZIN AC000       2.896  -1.417  -5.076  0.00  0.00     0.257 C 
ATOM      2  O10 ZIN AC000       4.104  -1.554  -5.077  0.00  0.00    -0.267 OA
ATOM      3  N11 ZIN AC000       2.198  -1.584  -6.216  0.00  0.00    -0.323 N 
ATOM      4  H33 ZIN AC000       1.229  -1.539  -6.203  0.00  0.00     0.169 HD
ENDROOT
BRANCH   3   5
ATOM      5  C12 ZIN AC000       2.871  -1.821  -7.420  0.00  0.00     0.035 A 
ATOM      6  C24 ZIN AC000       2.374  -1.302  -8.606  0.00  0.00     0.045 A 
ATOM      7  C17 ZIN AC000       3.049  -1.536  -9.801  0.00  0.00     0.017 A 
ATOM      8  C15 ZIN AC000       4.216  -2.301  -9.800  0.00  0.00     0.046 A 
ATOM      9  C14 ZIN AC000       4.701  -2.819  -8.614  0.00  0.00     0.027 A 
ATOM     10 Cl16 ZIN AC000       5.058  -2.602 -11.288  0.00  0.00    -0.083 Cl
ATOM     11  C13 ZIN AC000       4.033  -2.582  -7.428  0.00  0.00     0.031 A 
BRANCH   7  12
ATOM     12  C18 ZIN AC000       2.526  -0.980 -11.073  0.00  0.00     0.068 A 
ATOM     13  N23 ZIN AC000       2.389  -1.770 -12.130  0.00  0.00    -0.260 NA
ATOM     14  C22 ZIN AC000       1.923  -1.315 -13.276  0.00  0.00     0.117 A 
ATOM     15  C21 ZIN AC000       1.569   0.014 -13.421  0.00  0.00     0.019 A 
ATOM     16  C20 ZIN AC000       1.702   0.875 -12.342  0.00  0.00     0.004 A 
ATOM     17  C19 ZIN AC000       2.188   0.370 -11.149  0.00  0.00     0.032 A 
ENDBRANCH   7  12
ENDBRANCH   3   5
BRANCH   1  18
ATOM     18  C8  ZIN AC000       2.194  -1.070  -3.824  0.00  0.00     0.054 A 
ATOM     19  C7  ZIN AC000       0.807  -0.913  -3.818  0.00  0.00     0.020 A 
ATOM     20  C6  ZIN AC000       0.157  -0.588  -2.646  0.00  0.00     0.024 A 
ATOM     21  C5  ZIN AC000       0.876  -0.417  -1.476  0.00  0.00     0.060 A 
ATOM     22  C27 ZIN AC000       2.251  -0.566  -1.474  0.00  0.00     0.048 A 
ATOM     23  C25 ZIN AC000       2.914  -0.896  -2.639  0.00  0.00     0.051 A 
ATOM     24 Cl26 ZIN AC000       4.640  -1.089  -2.634  0.00  0.00    -0.083 Cl
BRANCH  21  25
ATOM     25  S2  ZIN AC000       0.037  -0.001   0.017  0.00  0.00     0.171 S 
ATOM     26  C1  ZIN AC000       0.006   1.813   0.029  0.00  0.00     0.167 C 
ATOM     27  O3  ZIN AC000       0.886  -0.492   1.045  0.00  0.00    -0.223 OA
ATOM     28  O4  ZIN AC000      -1.274  -0.521  -0.162  0.00  0.00    -0.223 OA
ENDBRANCH  21  25
ENDBRANCH   1  18
TORSDOF 4
