REMARK  7 active torsions:
REMARK  status: ('A' for Active; 'I' for Inactive)
REMARK    1  A    between atoms: C4_4  and  C6_5 
REMARK    2  A    between atoms: C6_5  and  O8_7 
REMARK    3  A    between atoms: O8_7  and  C9_8 
REMARK    4  A    between atoms: C9_8  and  C10_9 
REMARK    5  A    between atoms: C14_13  and  O15_14 
REMARK    6  A    between atoms: O15_14  and  C16_15 
REMARK    7  A    between atoms: C23_22  and  C25_23 
ROOT
ATOM      1  C10 <0> d           1.511  -3.760  -4.375  0.00  0.00    -0.031 A 
ATOM      2  C11 <0> d           1.087  -3.496  -5.664  0.00  0.00     0.009 A 
ATOM      3  C12 <0> d           1.482  -4.315  -6.706  0.00  0.00     0.003 A 
ATOM      4  C13 <0> d           2.301  -5.399  -6.461  0.00  0.00     0.037 A 
ATOM      5  C14 <0> d           2.729  -5.667  -5.168  0.00  0.00     0.076 A 
ATOM      6  C22 <0> d           2.335  -4.841  -4.125  0.00  0.00     0.046 A 
ENDROOT
BRANCH   1   7
ATOM      7  C9  <0> d           1.079  -2.866  -3.242  0.00  0.00     0.217 C 
BRANCH   7   8
ATOM      8  O8  <0> d           2.039  -1.788  -3.083  0.00  0.00    -0.317 OA
BRANCH   8   9
ATOM      9  C6  <0> d           1.799  -0.896  -2.109  0.00  0.00     0.264 C 
ATOM     10  O7  <0> d           0.819  -1.013  -1.412  0.00  0.00    -0.265 OA
BRANCH   9  11
ATOM     11  C4  <0> d           2.752   0.250  -1.884  0.00  0.00     0.102 A 
ATOM     12  C2  <0> d           2.422   1.232  -0.758  0.00  0.00    -0.027 A 
ATOM     13  C1  <0> d           2.780   2.703  -0.978  0.00  0.00     0.016 C 
ATOM     14  C23 <0> d           3.577   0.241  -0.596  0.00  0.00     0.034 A 
ATOM     15  C3  <0> d           1.152   0.975   0.054  0.00  0.00     0.016 C 
BRANCH  14  16
ATOM     16  C25 <0> d           4.979   0.789  -0.664  0.00  0.00     0.016 C 
ATOM     17  C26 <0> d           5.788   0.653   0.361  0.00  0.00     0.100 C 
ATOM     18 Cl27 <0> d           5.242  -0.158   1.796  0.00  0.00    -0.071 Cl
ATOM     19 Cl28 <0> d           7.403   1.284   0.283  0.00  0.00    -0.071 Cl
ENDBRANCH  14  16
ENDBRANCH   9  11
ENDBRANCH   8   9
ENDBRANCH   7   8
ENDBRANCH   1   7
BRANCH   5  20
ATOM     20  O15 <0> d           3.535  -6.733  -4.925  0.00  0.00    -0.311 OA
BRANCH  20  21
ATOM     21  C16 <0> d           3.921  -6.962  -3.642  0.00  0.00     0.076 A 
ATOM     22  C21 <0> d           5.088  -6.391  -3.155  0.00  0.00     0.037 A 
ATOM     23  C20 <0> d           5.474  -6.619  -1.849  0.00  0.00     0.003 A 
ATOM     24  C19 <0> d           4.706  -7.427  -1.031  0.00  0.00     0.000 A 
ATOM     25  C18 <0> d           3.546  -8.002  -1.516  0.00  0.00     0.003 A 
ATOM     26  C17 <0> d           3.151  -7.771  -2.819  0.00  0.00     0.037 A 
ENDBRANCH  20  21
ENDBRANCH   5  20
TORSDOF 7
