REMARK  9 active torsions:
REMARK  status: ('A' for Active; 'I' for Inactive)
REMARK    1  A    between atoms: C2_2  and  O3_3 
REMARK    2  A    between atoms: O3_3  and  C4_4 
REMARK    3  A    between atoms: C4_4  and  C6_6 
REMARK    4  A    between atoms: C6_6  and  C7_7 
REMARK    5  A    between atoms: N15_15  and  C16_16 
REMARK    6  A    between atoms: C16_16  and  C17_17 
REMARK    7  A    between atoms: C17_17  and  C18_18 
REMARK    8  A    between atoms: C18_18  and  C21_21 
REMARK    9  A    between atoms: C18_18  and  C27_27 
ROOT
ATOM      1  C18 ZIN AC000      -3.211  -6.614   4.320  0.00  0.00     0.104 C 
ATOM      2  C19 ZIN AC000      -4.040  -6.418   3.120  0.00  0.00     0.079 C 
ATOM      3  N20 ZIN AC000      -4.679  -6.266   2.193  0.00  0.00    -0.196 NA
ENDROOT
BRANCH   1   4
ATOM      4  C17 ZIN AC000      -1.818  -6.027   4.080  0.00  0.00     0.065 C 
BRANCH   4   5
ATOM      5  C16 ZIN AC000      -1.943  -4.541   3.739  0.00  0.00     0.275 C 
BRANCH   5   6
ATOM      6  N15 ZIN AC000      -0.603  -3.949   3.632  0.00  0.00     0.088 N 
ATOM      7  C14 ZIN AC000      -0.680  -2.485   3.542  0.00  0.00     0.274 C 
ATOM      8  C13 ZIN AC000       0.732  -1.895   3.579  0.00  0.00     0.055 C 
ATOM      9  C6  ZIN AC000       1.544  -2.455   2.408  0.00  0.00     0.078 C 
ATOM     10  C34 ZIN AC000       1.568  -3.984   2.498  0.00  0.00     0.055 C 
ATOM     11  C33 ZIN AC000       0.132  -4.513   2.493  0.00  0.00     0.274 C 
BRANCH   9  12
ATOM     12  C4  ZIN AC000       0.907  -2.038   1.107  0.00  0.00     0.272 C 
ATOM     13  O5  ZIN AC000       0.512  -2.876   0.332  0.00  0.00    -0.264 OA
BRANCH  12  14
ATOM     14  O3  ZIN AC000       0.778  -0.735   0.811  0.00  0.00    -0.321 OA
BRANCH  14  15
ATOM     15  C2  ZIN AC000       0.155  -0.406  -0.459  0.00  0.00     0.174 C 
ATOM     16  C1  ZIN AC000       0.096   1.114  -0.619  0.00  0.00     0.034 C 
ENDBRANCH  14  15
ENDBRANCH  12  14
ENDBRANCH   9  12
BRANCH   9  17
ATOM     17  C7  ZIN AC000       2.953  -1.925   2.472  0.00  0.00    -0.040 A 
ATOM     18  C12 ZIN AC000       3.183  -0.563   2.410  0.00  0.00     0.008 A 
ATOM     19  C11 ZIN AC000       4.475  -0.076   2.473  0.00  0.00     0.001 A 
ATOM     20  C10 ZIN AC000       5.538  -0.952   2.588  0.00  0.00     0.000 A 
ATOM     21  C9  ZIN AC000       5.309  -2.314   2.644  0.00  0.00     0.001 A 
ATOM     22  C8  ZIN AC000       4.017  -2.800   2.586  0.00  0.00     0.008 A 
ENDBRANCH   9  17
ENDBRANCH   5   6
ENDBRANCH   4   5
ENDBRANCH   1   4
BRANCH   1  23
ATOM     23  C21 ZIN AC000      -3.091  -8.088   4.612  0.00  0.00    -0.031 A 
ATOM     24  C26 ZIN AC000      -4.229  -8.851   4.793  0.00  0.00     0.009 A 
ATOM     25  C25 ZIN AC000      -4.120 -10.203   5.058  0.00  0.00     0.001 A 
ATOM     26  C24 ZIN AC000      -2.872 -10.791   5.149  0.00  0.00     0.000 A 
ATOM     27  C23 ZIN AC000      -1.733 -10.026   4.973  0.00  0.00     0.001 A 
ATOM     28  C22 ZIN AC000      -1.843  -8.675   4.705  0.00  0.00     0.009 A 
ENDBRANCH   1  23
BRANCH   1  29
ATOM     29  C27 ZIN AC000      -3.853  -5.920   5.493  0.00  0.00    -0.031 A 
ATOM     30  C32 ZIN AC000      -3.312  -6.056   6.758  0.00  0.00     0.009 A 
ATOM     31  C31 ZIN AC000      -3.898  -5.415   7.833  0.00  0.00     0.001 A 
ATOM     32  C30 ZIN AC000      -5.031  -4.646   7.645  0.00  0.00     0.000 A 
ATOM     33  C29 ZIN AC000      -5.576  -4.514   6.381  0.00  0.00     0.001 A 
ATOM     34  C28 ZIN AC000      -4.987  -5.151   5.305  0.00  0.00     0.009 A 
ENDBRANCH   1  29
TORSDOF 9
