REMARK  0 active torsions:
REMARK  status: ('A' for Active; 'I' for Inactive)
ROOT
ATOM      1  C1  ZIN AC000      -0.019   1.526   0.010  0.00  0.00     0.046 C 
ATOM      2  C2  ZIN AC000       0.002  -0.004   0.002  0.00  0.00     0.058 C 
ATOM      3  C3  ZIN AC000       0.721  -0.500  -1.256  0.00  0.00     0.038 C 
ATOM      4  C4  ZIN AC000       0.714  -2.032  -1.265  0.00  0.00     0.010 C 
ATOM      5  C5  ZIN AC000      -0.015  -2.530  -0.012  0.00  0.00     0.020 C 
ATOM      6  C6  ZIN AC000       0.745  -2.045   1.229  0.00  0.00     0.010 C 
ATOM      7  C7  ZIN AC000       0.742  -0.513   1.242  0.00  0.00     0.038 C 
ATOM      8  C8  ZIN AC000      -1.426  -1.933   0.008  0.00  0.00     0.058 C 
ATOM      9  C9  ZIN AC000      -2.193  -2.394  -1.233  0.00  0.00     0.046 C 
ATOM     10  C10 ZIN AC000      -2.161  -2.402   1.266  0.00  0.00     0.046 C 
ATOM     11  O11 ZIN AC000      -1.338  -0.501   0.015  0.00  0.00    -0.370 OA
ENDROOT
TORSDOF 0
