REMARK  4 active torsions:
REMARK  status: ('A' for Active; 'I' for Inactive)
REMARK    1  A    between atoms: N1_1  and  C5_5 
REMARK    2  A    between atoms: C5_5  and  C6_6 
REMARK    3  A    between atoms: C6_6  and  C7_7 
REMARK    4  A    between atoms: C7_7  and  C8_8 
ROOT
ATOM      1  C6  ZIN AC000       0.148   0.974   2.388  0.00  0.00    -0.007 C 
ATOM      2  C11 ZIN AC000       1.544   1.598   2.398  0.00  0.00     0.011 C 
ATOM      3  C12 ZIN AC000       2.324   1.084   3.611  0.00  0.00     0.001 C 
ATOM      4  C13 ZIN AC000       1.583   1.469   4.893  0.00  0.00     0.000 C 
ATOM      5  C14 ZIN AC000       0.187   0.844   4.883  0.00  0.00     0.001 C 
ATOM      6  C15 ZIN AC000      -0.593   1.358   3.671  0.00  0.00     0.011 C 
ENDROOT
BRANCH   1   7
ATOM      7  C5  ZIN AC000      -0.631   1.488   1.176  0.00  0.00     0.239 C 
BRANCH   7   8
ATOM      8  N1  ZIN AC000      -0.865   2.931   1.320  0.00  0.00    -0.079 N 
ATOM      9  H2  ZIN AC000       0.021   3.412   1.366  0.00  0.00     0.274 HD
ATOM     10  H3  ZIN AC000      -1.387   3.104   2.166  0.00  0.00     0.274 HD
ATOM     11  H4  ZIN AC000      -1.389   3.268   0.526  0.00  0.00     0.274 HD
ENDBRANCH   7   8
ENDBRANCH   1   7
BRANCH   1  12
ATOM     12  C7  ZIN AC000       0.270  -0.549   2.307  0.00  0.00     0.124 C 
BRANCH  12  13
ATOM     13  C8  ZIN AC000       1.040  -0.926   1.068  0.00  0.00     0.173 C 
ATOM     14  O9  ZIN AC000       1.373  -0.065   0.271  0.00  0.00    -0.648 OA
ATOM     15  O10 ZIN AC000       1.331  -2.092   0.862  0.00  0.00    -0.648 OA
ENDBRANCH  12  13
ENDBRANCH   1  12
TORSDOF 4
