REMARK  1 active torsions:
REMARK  status: ('A' for Active; 'I' for Inactive)
REMARK    1  A    between atoms: N1_1  and  C2_2 
ROOT
ATOM      1  C2  <0> d           0.002  -0.004   0.002  0.00  0.00     0.155 A 
ATOM      2  C3  <0> d          -1.195  -0.739   0.004  0.00  0.00     0.149 A 
ATOM      3  N4  <0> d          -2.511  -0.417   0.012  0.00  0.00    -0.236 NA
ATOM      4  C5  <0> d          -3.224  -1.506   0.010  0.00  0.00     0.209 A 
ATOM      5  N6  <0> d          -2.407  -2.597  -0.001  0.00  0.00    -0.333 N 
ATOM      6  C7  <0> d          -1.113  -2.142  -0.005  0.00  0.00     0.162 A 
ATOM      7  N8  <0> d           0.085  -2.718  -0.015  0.00  0.00    -0.222 NA
ATOM      8  C9  <0> d           1.181  -1.989  -0.016  0.00  0.00     0.237 A 
ATOM      9  N10 <0> d           1.153  -0.668  -0.013  0.00  0.00    -0.222 NA
ATOM     10  H14 <0> d          -2.689  -3.525  -0.004  0.00  0.00     0.168 HD
ENDROOT
BRANCH   1  11
ATOM     11  N1  <0> d          -0.017   1.380   0.010  0.00  0.00    -0.382 N 
ATOM     12  H11 <0> d           0.817   1.876   0.004  0.00  0.00     0.157 HD
ATOM     13  H12 <0> d          -0.863   1.853   0.016  0.00  0.00     0.157 HD
ENDBRANCH   1  11
TORSDOF 1
