REMARK  7 active torsions:
REMARK  status: ('A' for Active; 'I' for Inactive)
REMARK    1  A    between atoms: N10_10  and  C11_11 
REMARK    2  A    between atoms: N14_14  and  C15_15 
REMARK    3  A    between atoms: C15_15  and  C16_16 
REMARK    4  A    between atoms: C16_16  and  C17_17 
REMARK    5  A    between atoms: C17_17  and  C18_18 
REMARK    6  A    between atoms: C18_18  and  C19_19 
REMARK    7  A    between atoms: C18_18  and  C26_26 
ROOT
ATOM      1  C15 <0> d           4.400  -1.752  -1.167  0.00  0.00     0.272 C 
ENDROOT
BRANCH   1   2
ATOM      2  N14 <0> d           3.056  -1.490  -1.698  0.00  0.00     0.088 N 
ATOM      3  C13 <0> d           2.249  -0.729  -0.736  0.00  0.00     0.274 C 
ATOM      4  C12 <0> d           0.816  -0.602  -1.259  0.00  0.00     0.056 C 
ATOM      5  C11 <0> d           0.834   0.111  -2.614  0.00  0.00     0.098 C 
ATOM      6  C34 <0> d           1.721  -0.676  -3.583  0.00  0.00     0.056 C 
ATOM      7  C33 <0> d           3.127  -0.801  -2.993  0.00  0.00     0.274 C 
BRANCH   5   8
ATOM      8  N10 <0> d          -0.529   0.184  -3.147  0.00  0.00    -0.293 N 
ATOM      9  C2  <0> d          -1.324  -0.866  -3.423  0.00  0.00     0.328 A 
ATOM     10  O1  <0> d          -1.022  -2.034  -3.267  0.00  0.00    -0.246 OA
ATOM     11  N3  <0> d          -2.508  -0.428  -3.891  0.00  0.00    -0.306 N 
ATOM     12  C4  <0> d          -2.478   0.965  -3.926  0.00  0.00     0.063 A 
ATOM     13  H35 <0> d          -3.254  -0.986  -4.160  0.00  0.00     0.171 HD
ATOM     14  C9  <0> d          -1.221   1.353  -3.457  0.00  0.00     0.066 A 
ATOM     15  C5  <0> d          -3.398   1.927  -4.311  0.00  0.00     0.032 A 
ATOM     16  C8  <0> d          -0.898   2.699  -3.379  0.00  0.00     0.032 A 
ATOM     17  C7  <0> d          -1.822   3.650  -3.765  0.00  0.00     0.002 A 
ATOM     18  C6  <0> d          -3.068   3.266  -4.229  0.00  0.00     0.002 A 
ENDBRANCH   5   8
ENDBRANCH   1   2
BRANCH   1  19
ATOM     19  C16 <0> d           5.286  -2.319  -2.277  0.00  0.00     0.031 C 
BRANCH  19  20
ATOM     20  C17 <0> d           6.686  -2.592  -1.724  0.00  0.00     0.016 C 
BRANCH  20  21
ATOM     21  C18 <0> d           7.572  -3.159  -2.834  0.00  0.00     0.051 C 
BRANCH  21  22
ATOM     22  C19 <0> d           7.763  -2.118  -3.906  0.00  0.00    -0.049 A 
ATOM     23  C25 <0> d           8.204  -0.852  -3.569  0.00  0.00     0.011 A 
ATOM     24  C24 <0> d           8.384   0.103  -4.551  0.00  0.00     0.043 A 
ATOM     25  C22 <0> d           8.113  -0.206  -5.874  0.00  0.00     0.116 A 
ATOM     26  C21 <0> d           7.667  -1.473  -6.210  0.00  0.00     0.043 A 
ATOM     27  F23 <0> d           8.284   0.728  -6.835  0.00  0.00    -0.206 F 
ATOM     28  C20 <0> d           7.492  -2.427  -5.226  0.00  0.00     0.011 A 
ENDBRANCH  21  22
BRANCH  21  29
ATOM     29  C26 <0> d           8.913  -3.542  -2.261  0.00  0.00    -0.049 A 
ATOM     30  C32 <0> d           9.422  -4.808  -2.483  0.00  0.00     0.011 A 
ATOM     31  C31 <0> d          10.653  -5.159  -1.962  0.00  0.00     0.043 A 
ATOM     32  C29 <0> d          11.372  -4.245  -1.210  0.00  0.00     0.116 A 
ATOM     33  C28 <0> d          10.858  -2.979  -0.984  0.00  0.00     0.043 A 
ATOM     34  F30 <0> d          12.573  -4.588  -0.696  0.00  0.00    -0.206 F 
ATOM     35  C27 <0> d           9.629  -2.629  -1.510  0.00  0.00     0.011 A 
ENDBRANCH  21  29
ENDBRANCH  20  21
ENDBRANCH  19  20
ENDBRANCH   1  19
TORSDOF 7
