REMARK  5 active torsions:
REMARK  status: ('A' for Active; 'I' for Inactive)
REMARK    1  A    between atoms: C2_2  and  N3_3 
REMARK       I    between atoms: N3_3  and  C5_5 
REMARK    2  A    between atoms: C5_5  and  O7_7 
REMARK    3  A    between atoms: O7_7  and  C8_8 
REMARK    4  A    between atoms: C12_12  and  C13_13 
REMARK    5  A    between atoms: C13_13  and  N16_15 
ROOT
ATOM      1  C8  ZIN AC000       4.029  -1.391   2.203  0.00  0.00     0.081 A 
ATOM      2  C9  ZIN AC000       4.762  -1.111   1.059  0.00  0.00     0.037 A 
ATOM      3  C10 ZIN AC000       6.120  -1.365   1.031  0.00  0.00     0.003 A 
ATOM      4  C11 ZIN AC000       6.748  -1.897   2.142  0.00  0.00     0.009 A 
ATOM      5  C12 ZIN AC000       6.019  -2.177   3.283  0.00  0.00    -0.023 A 
ATOM      6  C19 ZIN AC000       4.663  -1.919   3.318  0.00  0.00     0.046 A 
ENDROOT
BRANCH   1   7
ATOM      7  O7  ZIN AC000       2.693  -1.142   2.233  0.00  0.00    -0.261 OA
BRANCH   7   8
ATOM      8  C5  ZIN AC000       1.893  -2.021   1.600  0.00  0.00     0.367 C 
ATOM      9  N3  ZIN AC000       0.554  -1.889   1.675  0.00  0.00    -0.332 N 
ATOM     10  C4  ZIN AC000      -0.032  -0.789   2.445  0.00  0.00     0.155 C 
ATOM     11  O6  ZIN AC000       2.379  -2.934   0.961  0.00  0.00    -0.238 OA
BRANCH   9  12
ATOM     12  C2  ZIN AC000      -0.316  -2.845   0.986  0.00  0.00     0.123 C 
ATOM     13  C1  ZIN AC000      -0.603  -2.346  -0.431  0.00  0.00     0.026 C 
ENDBRANCH   9  12
ENDBRANCH   7   8
ENDBRANCH   1   7
BRANCH   5  14
ATOM     14  C13 ZIN AC000       6.707  -2.757   4.492  0.00  0.00     0.251 C 
ATOM     15  C15 ZIN AC000       7.413  -1.640   5.263  0.00  0.00     0.048 C 
BRANCH  14  16
ATOM     16  N16 ZIN AC000       7.695  -3.755   4.061  0.00  0.00     0.088 N 
ATOM     17  C17 ZIN AC000       8.387  -4.343   5.216  0.00  0.00     0.310 C 
ATOM     18  C18 ZIN AC000       7.067  -4.796   3.237  0.00  0.00     0.310 C 
ENDBRANCH  14  16
ENDBRANCH   5  14
TORSDOF 5
