REMARK  2 active torsions:
REMARK  status: ('A' for Active; 'I' for Inactive)
REMARK    1  A    between atoms: C8_8  and  C9_9 
REMARK    2  A    between atoms: C10_10  and  C11_11 
ROOT
ATOM      1  C1  <0> d          -0.022   1.459  -0.005  0.00  0.00     0.151 C 
ATOM      2  N2  <0> d           0.001  -0.005  -0.005  0.00  0.00    -0.372 N 
ATOM      3  C3  <0> d          -1.248  -0.775   0.106  0.00  0.00     0.125 C 
ATOM      4  C4  <0> d          -0.985  -1.939   1.075  0.00  0.00     0.039 C 
ATOM      5  C5  <0> d           0.146  -2.798   0.505  0.00  0.00     0.123 C 
ATOM      6  N6  <0> d           1.282  -1.966   0.127  0.00  0.00    -0.376 N 
ATOM      7  H7  <0> d           2.152  -2.388   0.048  0.00  0.00     0.161 HD
ATOM      8  C8  <0> d           1.195  -0.693  -0.117  0.00  0.00     0.098 C 
ENDROOT
BRANCH   8   9
ATOM      9  C9  <0> d           2.401   0.039  -0.510  0.00  0.00     0.049 C 
ATOM     10  C10 <0> d           3.558  -0.629  -0.720  0.00  0.00     0.022 C 
BRANCH  10  11
ATOM     11  C11 <0> d           4.762   0.101  -1.113  0.00  0.00     0.004 A 
ATOM     12  S15 <0> d           4.869   1.840  -1.352  0.00  0.00    -0.102 SA
ATOM     13  C14 <0> d           6.523   1.731  -1.754  0.00  0.00     0.050 A 
ATOM     14  C13 <0> d           6.944   0.462  -1.712  0.00  0.00     0.008 A 
ATOM     15  C12 <0> d           5.985  -0.460  -1.359  0.00  0.00     0.019 A 
ENDBRANCH  10  11
ENDBRANCH   8   9
TORSDOF 2
