REMARK  6 active torsions:
REMARK  status: ('A' for Active; 'I' for Inactive)
REMARK    1  A    between atoms: N2_2  and  C4_4 
REMARK    2  A    between atoms: C4_4  and  C5_5 
REMARK    3  A    between atoms: C5_5  and  O6_6 
REMARK    4  A    between atoms: O6_6  and  C7_7 
REMARK    5  A    between atoms: C7_7  and  C9_9 
REMARK    6  A    between atoms: C7_7  and  C15_15 
ROOT
ATOM      1  C7  ZIN AC000      -0.819  -4.070   1.106  0.00  0.00     0.128 C 
ATOM      2  C8  ZIN AC000       0.221  -4.496   0.068  0.00  0.00     0.058 C 
ENDROOT
BRANCH   1   3
ATOM      3  O6  ZIN AC000      -0.939  -2.646   1.103  0.00  0.00    -0.367 OA
BRANCH   3   4
ATOM      4  C5  ZIN AC000      -1.219  -2.089  -0.183  0.00  0.00     0.200 C 
BRANCH   4   5
ATOM      5  C4  ZIN AC000      -1.457  -0.584  -0.046  0.00  0.00     0.297 C 
BRANCH   5   6
ATOM      6  N2  ZIN AC000      -0.224   0.066   0.419  0.00  0.00     0.082 N 
ATOM      7  C1  ZIN AC000       0.757   0.174  -0.669  0.00  0.00     0.309 C 
ATOM      8  C3  ZIN AC000      -0.511   1.384   1.001  0.00  0.00     0.309 C 
ENDBRANCH   5   6
ENDBRANCH   4   5
ENDBRANCH   3   4
ENDBRANCH   1   3
BRANCH   1   9
ATOM      9  C9  ZIN AC000      -2.151  -4.686   0.766  0.00  0.00    -0.018 A 
ATOM     10  C14 ZIN AC000      -3.320  -3.994   1.024  0.00  0.00     0.010 A 
ATOM     11  C13 ZIN AC000      -4.542  -4.558   0.708  0.00  0.00     0.001 A 
ATOM     12  C12 ZIN AC000      -4.596  -5.818   0.141  0.00  0.00     0.000 A 
ATOM     13  C11 ZIN AC000      -3.427  -6.512  -0.113  0.00  0.00     0.001 A 
ATOM     14  C10 ZIN AC000      -2.205  -5.946   0.200  0.00  0.00     0.010 A 
ENDBRANCH   1   9
BRANCH   1  15
ATOM     15  C15 ZIN AC000      -0.385  -4.535   2.472  0.00  0.00     0.073 A 
ATOM     16  N20 ZIN AC000      -1.112  -5.425   3.119  0.00  0.00    -0.262 NA
ATOM     17  C19 ZIN AC000      -0.768  -5.864   4.314  0.00  0.00     0.117 A 
ATOM     18  C18 ZIN AC000       0.371  -5.393   4.940  0.00  0.00     0.019 A 
ATOM     19  C17 ZIN AC000       1.157  -4.452   4.293  0.00  0.00     0.003 A 
ATOM     20  C16 ZIN AC000       0.767  -4.019   3.035  0.00  0.00     0.031 A 
ENDBRANCH   1  15
TORSDOF 6
