REMARK  1 active torsions:
REMARK  status: ('A' for Active; 'I' for Inactive)
REMARK    1  A    between atoms: C8_8  and  C9_9 
ROOT
ATOM      1 Cl1  ZIN AC000      -0.416   0.292   0.679  0.00  0.00    -0.084 Cl
ATOM      2  C2  ZIN AC000      -0.274   2.011   0.488  0.00  0.00     0.035 A 
ATOM      3  C3  ZIN AC000      -1.410   2.804   0.504  0.00  0.00     0.026 A 
ATOM      4  C4  ZIN AC000      -1.300   4.170   0.338  0.00  0.00     0.032 A 
ATOM      5  C5  ZIN AC000      -0.053   4.761   0.162  0.00  0.00     0.054 A 
ATOM      6  C6  ZIN AC000       1.099   3.971   0.170  0.00  0.00     0.022 A 
ATOM      7  C7  ZIN AC000       0.968   2.584   0.327  0.00  0.00     0.040 A 
ATOM      8  C8  ZIN AC000       2.452   4.529   0.067  0.00  0.00     0.074 C 
ATOM      9  N15 ZIN AC000       2.861   5.475  -0.705  0.00  0.00    -0.281 NA
ATOM     10  C16 ZIN AC000       1.966   6.139  -1.660  0.00  0.00     0.230 C 
ATOM     11  C17 ZIN AC000       0.857   6.791  -0.873  0.00  0.00     0.154 A 
ATOM     12  N18 ZIN AC000       0.539   8.053  -0.849  0.00  0.00    -0.133 NA
ATOM     13  N19 ZIN AC000      -0.436   8.238  -0.027  0.00  0.00    -0.143 NA
ATOM     14  C20 ZIN AC000      -0.794   7.097   0.503  0.00  0.00     0.240 A 
ATOM     15  N21 ZIN AC000       0.002   6.140  -0.042  0.00  0.00    -0.288 N 
ENDROOT
BRANCH   8  16
ATOM     16  C9  ZIN AC000       3.472   3.931   0.958  0.00  0.00    -0.007 A 
ATOM     17  C14 ZIN AC000       3.088   3.323   2.153  0.00  0.00     0.014 A 
ATOM     18  C13 ZIN AC000       4.042   2.762   2.977  0.00  0.00     0.001 A 
ATOM     19  C12 ZIN AC000       5.379   2.813   2.625  0.00  0.00     0.000 A 
ATOM     20  C11 ZIN AC000       5.767   3.420   1.444  0.00  0.00     0.001 A 
ATOM     21  C10 ZIN AC000       4.822   3.979   0.609  0.00  0.00     0.014 A 
ENDBRANCH   8  16
TORSDOF 1
