REMARK  3 active torsions:
REMARK  status: ('A' for Active; 'I' for Inactive)
REMARK    1  A    between atoms: C2_2  and  C3_3 
REMARK    2  A    between atoms: C11_11  and  C13_12 
REMARK    3  A    between atoms: C13_12  and  N14_13 
ROOT
ATOM      1  C3  ZIN AC000      -1.382  -0.040  -0.085  0.00  0.00    -0.021 A 
ATOM      2  C4  ZIN AC000      -2.110  -0.258   1.030  0.00  0.00     0.012 A 
ATOM      3  C5  ZIN AC000      -1.662   0.044   2.436  0.00  0.00     0.068 C 
ATOM      4  N6  ZIN AC000      -3.320  -0.796   0.681  0.00  0.00    -0.362 N 
ATOM      5  C7  ZIN AC000      -3.402  -0.939  -0.645  0.00  0.00     0.024 A 
ATOM      6  C8  ZIN AC000      -2.214  -0.472  -1.194  0.00  0.00     0.041 A 
ATOM      7  C9  ZIN AC000      -1.971  -0.478  -2.641  0.00  0.00     0.167 C 
ATOM      8  O10 ZIN AC000      -0.877  -0.265  -3.119  0.00  0.00    -0.292 OA
ATOM      9  C11 ZIN AC000      -3.194  -0.772  -3.498  0.00  0.00     0.087 C 
ATOM     10  C21 ZIN AC000      -3.976  -1.917  -2.848  0.00  0.00     0.020 C 
ATOM     11  C22 ZIN AC000      -4.529  -1.486  -1.484  0.00  0.00     0.059 C 
ATOM     12  H31 ZIN AC000      -4.018  -1.040   1.309  0.00  0.00     0.165 HD
ENDROOT
BRANCH   9  13
ATOM     13  C13 ZIN AC000      -2.751  -1.183  -4.904  0.00  0.00     0.247 C 
BRANCH  13  14
ATOM     14  N14 ZIN AC000      -3.932  -1.340  -5.763  0.00  0.00    -0.066 N 
ATOM     15  H15 ZIN AC000      -4.579  -1.983  -5.332  0.00  0.00     0.280 HD
ATOM     16  C20 ZIN AC000      -4.583  -0.035  -5.944  0.00  0.00     0.261 C 
ATOM     17  C19 ZIN AC000      -5.813  -0.202  -6.840  0.00  0.00     0.195 C 
ATOM     18  O18 ZIN AC000      -5.412  -0.767  -8.091  0.00  0.00    -0.388 OA
ATOM     19  C17 ZIN AC000      -4.751  -2.029  -7.966  0.00  0.00     0.195 C 
ATOM     20  C16 ZIN AC000      -3.519  -1.866  -7.072  0.00  0.00     0.261 C 
ENDBRANCH  13  14
ENDBRANCH   9  13
BRANCH   1  21
ATOM     21  C2  ZIN AC000       0.007   0.539  -0.164  0.00  0.00     0.037 C 
ATOM     22  C1  ZIN AC000      -0.082   2.062  -0.289  0.00  0.00     0.010 C 
ENDBRANCH   1  21
TORSDOF 3
