REMARK  8 active torsions:
REMARK  status: ('A' for Active; 'I' for Inactive)
REMARK    1  A    between atoms: C2_2  and  N5_5 
REMARK    2  A    between atoms: N5_5  and  C8_8 
REMARK    3  A    between atoms: C8_8  and  C9_9 
REMARK    4  A    between atoms: C9_9  and  O11_10 
REMARK    5  A    between atoms: C9_9  and  C12_11 
REMARK    6  A    between atoms: C12_11  and  O13_12 
REMARK    7  A    between atoms: O13_12  and  C14_13 
REMARK    8  A    between atoms: C18_17  and  N19_18 
ROOT
ATOM      1  C12 <0> d           4.532  -0.578  -2.214  0.00  0.00     0.211 C 
ENDROOT
BRANCH   1   2
ATOM      2  C9  <0> d           3.210  -1.341  -2.104  0.00  0.00     0.168 C 
BRANCH   2   3
ATOM      3  C8  <0> d           2.578  -1.074  -0.737  0.00  0.00     0.267 C 
BRANCH   3   4
ATOM      4  N5  <0> d           1.309  -1.807  -0.632  0.00  0.00    -0.065 N 
ATOM      5  H6  <0> d           1.482  -2.796  -0.735  0.00  0.00     0.278 HD
ATOM      6  H7  <0> d           0.681  -1.498  -1.359  0.00  0.00     0.278 HD
BRANCH   4   7
ATOM      7  C2  <0> d           0.703  -1.550   0.681  0.00  0.00     0.115 C 
ATOM      8  C1  <0> d           0.441  -0.051   0.838  0.00  0.00     0.045 C 
ATOM      9  C3  <0> d           1.655  -2.019   1.783  0.00  0.00     0.045 C 
ATOM     10  C4  <0> d          -0.619  -2.313   0.790  0.00  0.00     0.045 C 
ENDBRANCH   4   7
ENDBRANCH   3   4
ENDBRANCH   2   3
BRANCH   2  11
ATOM     11  O11 <0> d           3.455  -2.742  -2.251  0.00  0.00    -0.392 OA
ATOM     12  H36 <0> d           4.052  -3.108  -1.584  0.00  0.00     0.210 HD
ENDBRANCH   2  11
ENDBRANCH   1   2
BRANCH   1  13
ATOM     13  O13 <0> d           5.064  -0.734  -3.531  0.00  0.00    -0.329 OA
BRANCH  13  14
ATOM     14  C14 <0> d           6.245  -0.113  -3.797  0.00  0.00     0.221 A 
ATOM     15  C18 <0> d           6.855  -0.192  -5.037  0.00  0.00     0.189 A 
ATOM     16  N17 <0> d           7.986   0.457  -5.154  0.00  0.00    -0.171 NA
ATOM     17  S16 <0> d           8.283   1.175  -3.646  0.00  0.00     0.120 SA
ATOM     18  N15 <0> d           6.878   0.592  -2.897  0.00  0.00    -0.164 NA
BRANCH  15  19
ATOM     19  N19 <0> d           6.295  -0.913  -6.099  0.00  0.00    -0.358 N 
ATOM     20  C24 <0> d           7.040  -1.116  -7.352  0.00  0.00     0.151 C 
ATOM     21  C23 <0> d           6.143  -0.716  -8.523  0.00  0.00     0.187 C 
ATOM     22  O22 <0> d           4.889  -1.394  -8.412  0.00  0.00    -0.388 OA
ATOM     23  C21 <0> d           4.146  -1.060  -7.237  0.00  0.00     0.187 C 
ATOM     24  C20 <0> d           4.943  -1.483  -5.998  0.00  0.00     0.151 C 
ENDBRANCH  15  19
ENDBRANCH  13  14
ENDBRANCH   1  13
TORSDOF 8
