REMARK  11 active torsions:
REMARK  status: ('A' for Active; 'I' for Inactive)
REMARK    1  A    between atoms: C2_2  and  C3_3 
REMARK    2  A    between atoms: C3_3  and  C5_4 
REMARK    3  A    between atoms: C3_3  and  N7_6 
REMARK    4  A    between atoms: C5_4  and  O6_5 
REMARK    5  A    between atoms: N7_6  and  C10_9 
REMARK    6  A    between atoms: C10_9  and  C11_10 
REMARK    7  A    between atoms: C11_10  and  N12_11 
REMARK    8  A    between atoms: N12_11  and  C15_14 
REMARK    9  A    between atoms: C15_14  and  C17_15 
REMARK   10  A    between atoms: C15_14  and  C19_17 
REMARK   11  A    between atoms: C19_17  and  O20_18 
ROOT
ATOM      1  C10 ZIN AC000       0.241   0.440  -3.773  0.00  0.00     0.260 C 
ENDROOT
BRANCH   1   2
ATOM      2  N7  ZIN AC000      -0.567   1.102  -2.740  0.00  0.00    -0.067 N 
ATOM      3  H8  ZIN AC000      -1.458   0.636  -2.659  0.00  0.00     0.277 HD
ATOM      4  H9  ZIN AC000      -0.714   2.067  -2.995  0.00  0.00     0.277 HD
BRANCH   2   5
ATOM      5  C3  ZIN AC000       0.138   1.038  -1.452  0.00  0.00     0.209 C 
BRANCH   5   6
ATOM      6  C2  ZIN AC000      -0.642   1.835  -0.404  0.00  0.00     0.030 C 
ATOM      7  C1  ZIN AC000      -0.649   3.315  -0.789  0.00  0.00     0.007 C 
ENDBRANCH   5   6
BRANCH   5   8
ATOM      8  C5  ZIN AC000       0.251  -0.420  -1.005  0.00  0.00     0.197 C 
BRANCH   8   9
ATOM      9  O6  ZIN AC000      -1.054  -0.942  -0.748  0.00  0.00    -0.399 OA
ATOM     10  H28 ZIN AC000      -1.058  -1.865  -0.459  0.00  0.00     0.209 HD
ENDBRANCH   8   9
ENDBRANCH   5   8
ENDBRANCH   2   5
ENDBRANCH   1   2
BRANCH   1  11
ATOM     11  C11 ZIN AC000      -0.493   0.506  -5.114  0.00  0.00     0.260 C 
BRANCH  11  12
ATOM     12  N12 ZIN AC000       0.314  -0.156  -6.147  0.00  0.00    -0.067 N 
ATOM     13  H13 ZIN AC000       1.235   0.255  -6.169  0.00  0.00     0.277 HD
ATOM     14  H14 ZIN AC000       0.389  -1.140  -5.936  0.00  0.00     0.277 HD
BRANCH  12  15
ATOM     15  C15 ZIN AC000      -0.330   0.016  -7.457  0.00  0.00     0.209 C 
BRANCH  15  16
ATOM     16  C17 ZIN AC000       0.576  -0.555  -8.549  0.00  0.00     0.030 C 
ATOM     17  C18 ZIN AC000       1.865   0.266  -8.624  0.00  0.00     0.007 C 
ENDBRANCH  15  16
BRANCH  15  18
ATOM     18  C19 ZIN AC000      -1.669  -0.722  -7.467  0.00  0.00     0.197 C 
BRANCH  18  19
ATOM     19  O20 ZIN AC000      -1.440  -2.127  -7.340  0.00  0.00    -0.399 OA
ATOM     20  H40 ZIN AC000      -2.248  -2.659  -7.340  0.00  0.00     0.209 HD
ENDBRANCH  18  19
ENDBRANCH  15  18
ENDBRANCH  12  15
ENDBRANCH  11  12
ENDBRANCH   1  11
TORSDOF 11
