REMARK  4 active torsions:
REMARK  status: ('A' for Active; 'I' for Inactive)
REMARK    1  A    between atoms: N1_1  and  C5_5 
REMARK    2  A    between atoms: C5_5  and  C7_6 
REMARK    3  A    between atoms: C5_5  and  C9_8 
REMARK    4  A    between atoms: C7_6  and  S8_7 
ROOT
ATOM      1  C5  <0> d          -0.699   1.479   1.216  0.00  0.00     0.292 C 
ENDROOT
BRANCH   1   2
ATOM      2  N1  <0> d          -0.012   1.005   0.008  0.00  0.00    -0.065 N 
ATOM      3  H2  <0> d           0.002  -0.004   0.002  0.00  0.00     0.275 HD
ATOM      4  H3  <0> d           0.935   1.354   0.000  0.00  0.00     0.275 HD
ATOM      5  H4  <0> d          -0.500   1.339  -0.810  0.00  0.00     0.275 HD
ENDBRANCH   1   2
BRANCH   1   6
ATOM      6  C7  <0> d          -2.135   0.949   1.227  0.00  0.00     0.114 C 
BRANCH   6   7
ATOM      7  S8  <0> d          -3.012   1.550  -0.243  0.00  0.00    -0.180 SA
ATOM      8  H14 <0> d          -4.238   1.016  -0.102  0.00  0.00     0.101 HD
ENDBRANCH   6   7
ENDBRANCH   1   6
BRANCH   1   9
ATOM      9  C9  <0> d           0.030   0.979   2.437  0.00  0.00     0.205 C 
ATOM     10  O10 <0> d          -0.266   1.406   3.540  0.00  0.00    -0.646 OA
ATOM     11  O11 <0> d           0.915   0.149   2.322  0.00  0.00    -0.646 OA
ENDBRANCH   1   9
TORSDOF 4
