REMARK  3 active torsions:
REMARK  status: ('A' for Active; 'I' for Inactive)
REMARK    1  A    between atoms: N1_1  and  C2_2 
REMARK    2  A    between atoms: C7_7  and  O8_8 
REMARK    3  A    between atoms: O8_8  and  C9_9 
ROOT
ATOM      1  C2  ZIN AC000       0.002  -0.004   0.002  0.00  0.00     0.165 A 
ATOM      2  N3  ZIN AC000      -1.046  -0.754   0.002  0.00  0.00    -0.224 NA
ATOM      3  C4  ZIN AC000      -0.865  -2.091  -0.006  0.00  0.00     0.077 A 
ATOM      4  C5  ZIN AC000      -1.837  -3.112  -0.008  0.00  0.00     0.036 A 
ATOM      5  C6  ZIN AC000      -1.462  -4.432  -0.016  0.00  0.00     0.039 A 
ATOM      6  C7  ZIN AC000      -0.116  -4.784  -0.025  0.00  0.00     0.079 A 
ATOM      7  C13 ZIN AC000       0.853  -3.799  -0.024  0.00  0.00     0.058 A 
ATOM      8  C14 ZIN AC000       0.485  -2.456  -0.015  0.00  0.00     0.040 A 
ATOM      9  S15 ZIN AC000       1.459  -0.988  -0.017  0.00  0.00    -0.050 SA
ENDROOT
BRANCH   6  10
ATOM     10  O8  ZIN AC000       0.245  -6.095  -0.034  0.00  0.00    -0.255 OA
BRANCH  10  11
ATOM     11  C9  ZIN AC000      -0.810  -7.059  -0.034  0.00  0.00     0.530 C 
ATOM     12  F10 ZIN AC000      -1.605  -6.880  -1.172  0.00  0.00    -0.144 F 
ATOM     13  F11 ZIN AC000      -0.265  -8.347  -0.044  0.00  0.00    -0.144 F 
ATOM     14  F12 ZIN AC000      -1.594  -6.893   1.113  0.00  0.00    -0.144 F 
ENDBRANCH  10  11
ENDBRANCH   6  10
BRANCH   1  15
ATOM     15  N1  ZIN AC000      -0.017   1.377   0.010  0.00  0.00    -0.378 N 
ATOM     16  H16 ZIN AC000       0.817   1.873   0.004  0.00  0.00     0.158 HD
ATOM     17  H17 ZIN AC000      -0.863   1.850   0.016  0.00  0.00     0.158 HD
ENDBRANCH   1  15
TORSDOF 3
