REMARK  5 active torsions:
REMARK  status: ('A' for Active; 'I' for Inactive)
REMARK    1  A    between atoms: C2_2  and  C3_3 
REMARK    2  A    between atoms: C3_3  and  N4_4 
REMARK    3  A    between atoms: N4_4  and  C5_5 
REMARK    4  A    between atoms: C5_5  and  C8_7 
REMARK       I    between atoms: C8_7  and  N10_9 
REMARK    5  A    between atoms: N10_9  and  C11_10 
ROOT
ATOM      1  C8  <0> d           0.975  -3.897   2.712  0.00  0.00     0.255 C 
ATOM      2  O9  <0> d           0.118  -4.401   2.019  0.00  0.00    -0.271 OA
ATOM      3  N10 <0> d           1.479  -4.576   3.761  0.00  0.00    -0.325 N 
ATOM      4  H29 <0> d           2.210  -4.200   4.277  0.00  0.00     0.169 HD
ENDROOT
BRANCH   1   5
ATOM      5  C5  <0> d           1.478  -2.510   2.401  0.00  0.00     0.307 C 
ATOM      6  C7  <0> d           2.981  -2.564   2.119  0.00  0.00     0.053 C 
BRANCH   5   7
ATOM      7  N4  <0> d           0.776  -1.989   1.220  0.00  0.00     0.096 N 
ATOM      8  H25 <0> d          -0.161  -2.358   1.164  0.00  0.00     0.316 HD
BRANCH   7   9
ATOM      9  C3  <0> d           0.765  -0.520   1.220  0.00  0.00     0.270 C 
BRANCH   9  10
ATOM     10  C2  <0> d           0.028  -0.015  -0.022  0.00  0.00     0.025 C 
ATOM     11  C1  <0> d           0.016   1.514  -0.021  0.00  0.00     0.007 C 
ENDBRANCH   9  10
ENDBRANCH   7   9
ENDBRANCH   5   7
ENDBRANCH   1   5
BRANCH   3  12
ATOM     12  C11 <0> d           0.948  -5.824   4.107  0.00  0.00     0.040 A 
ATOM     13  C16 <0> d           0.882  -6.206   5.441  0.00  0.00    -0.035 A 
ATOM     14  C15 <0> d           0.351  -7.435   5.779  0.00  0.00     0.009 A 
ATOM     15  C17 <0> d           1.377  -5.276   6.518  0.00  0.00     0.050 C 
ATOM     16  C14 <0> d          -0.103  -8.290   4.791  0.00  0.00     0.001 A 
ATOM     17  C13 <0> d          -0.033  -7.914   3.462  0.00  0.00     0.002 A 
ATOM     18  C12 <0> d           0.491  -6.684   3.118  0.00  0.00     0.030 A 
ENDBRANCH   3  12
TORSDOF 5
