REMARK  0 active torsions:
REMARK  status: ('A' for Active; 'I' for Inactive)
ROOT
ATOM      1  C1  <0> d          -0.018   1.503   0.010  0.00  0.00     0.051 C 
ATOM      2  C2  <0> d           0.002  -0.004   0.002  0.00  0.00    -0.026 A 
ATOM      3  C3  <0> d           0.008  -0.794  -1.097  0.00  0.00     0.117 A 
ATOM      4  N4  <0> d           0.027  -2.078  -0.680  0.00  0.00    -0.289 N 
ATOM      5  N5  <0> d           0.034  -2.076   0.721  0.00  0.00    -0.187 NA
ATOM      6  C6  <0> d           0.025  -0.833   1.128  0.00  0.00     0.146 A 
ATOM      7  H11 <0> d           0.035  -2.862  -1.250  0.00  0.00     0.188 HD
ENDROOT
TORSDOF 0
