REMARK  4 active torsions:
REMARK  status: ('A' for Active; 'I' for Inactive)
REMARK    1  A    between atoms: C4_4  and  C5_5 
REMARK    2  A    between atoms: C9_9  and  O10_10 
REMARK    3  A    between atoms: C13_13  and  C14_14 
REMARK    4  A    between atoms: C14_14  and  C15_15 
ROOT
ATOM      1  C1  ZIN AC000      -0.018   1.503   0.010  0.00  0.00     0.049 C 
ATOM      2  C2  ZIN AC000       0.002  -0.004   0.002  0.00  0.00    -0.054 A 
ATOM      3  C3  ZIN AC000       0.006  -0.688  -1.200  0.00  0.00     0.018 A 
ATOM      4  C4  ZIN AC000       0.025  -2.069  -1.210  0.00  0.00    -0.016 A 
ATOM      5  C9  ZIN AC000       0.041  -2.770  -0.013  0.00  0.00     0.079 A 
ATOM      6  C11 ZIN AC000       0.037  -2.082   1.192  0.00  0.00    -0.021 A 
ATOM      7  C12 ZIN AC000       0.054  -2.841   2.494  0.00  0.00     0.052 C 
ATOM      8  C13 ZIN AC000       0.023  -0.701   1.196  0.00  0.00    -0.036 A 
ENDROOT
BRANCH   8   9
ATOM      9  C14 ZIN AC000       0.019   0.048   2.505  0.00  0.00     0.115 C 
BRANCH   9  10
ATOM     10  C15 ZIN AC000       1.439   0.311   2.936  0.00  0.00     0.077 A 
ATOM     11  N20 ZIN AC000       2.091   1.396   2.588  0.00  0.00    -0.378 N 
ATOM     12  C19 ZIN AC000       3.443   1.356   3.168  0.00  0.00     0.140 A 
ATOM     13  H44 ZIN AC000       1.736   2.112   2.040  0.00  0.00     0.160 HD
ATOM     14  C18 ZIN AC000       3.462   0.014   3.928  0.00  0.00     0.140 A 
ATOM     15  N16 ZIN AC000       2.116  -0.529   3.683  0.00  0.00    -0.378 N 
ATOM     16  H17 ZIN AC000       1.782  -1.375   4.021  0.00  0.00     0.160 HD
ENDBRANCH   9  10
ENDBRANCH   8   9
BRANCH   5  17
ATOM     17  O10 ZIN AC000       0.060  -4.129  -0.021  0.00  0.00    -0.360 OA
ATOM     18  H34 ZIN AC000       0.949  -4.510  -0.027  0.00  0.00     0.217 HD
ENDBRANCH   5  17
BRANCH   4  19
ATOM     19  C5  ZIN AC000       0.029  -2.813  -2.520  0.00  0.00    -0.021 C 
ATOM     20  C6  ZIN AC000       0.010  -1.811  -3.676  0.00  0.00     0.019 C 
ATOM     21  C7  ZIN AC000       1.290  -3.675  -2.613  0.00  0.00     0.019 C 
ATOM     22  C8  ZIN AC000      -1.208  -3.710  -2.602  0.00  0.00     0.019 C 
ENDBRANCH   4  19
TORSDOF 4
