REMARK  17 active torsions:
REMARK  status: ('A' for Active; 'I' for Inactive)
REMARK    1  A    between atoms: C2_2  and  O4_4 
REMARK    2  A    between atoms: O4_4  and  C5_5 
REMARK    3  A    between atoms: C5_5  and  C7_7 
REMARK    4  A    between atoms: C7_7  and  C8_8 
REMARK    5  A    between atoms: C8_8  and  C9_9 
REMARK    6  A    between atoms: C9_9  and  C10_10 
REMARK    7  A    between atoms: C11_11  and  C12_12 
REMARK    8  A    between atoms: C12_12  and  C13_13 
REMARK    9  A    between atoms: C15_14  and  C17_15 
REMARK   10  A    between atoms: C18_16  and  C19_17 
REMARK   11  A    between atoms: C19_17  and  O21_18 
REMARK   12  A    between atoms: C19_17  and  C22_19 
REMARK   13  A    between atoms: C22_19  and  O23_20 
REMARK   14  A    between atoms: O23_20  and  C24_21 
REMARK   15  A    between atoms: C28_25  and  C29_26 
REMARK   16  A    between atoms: C34_31  and  O36_32 
REMARK   17  A    between atoms: C38_34  and  O40_35 
ROOT
ATOM      1  C13 ZIN AC000      -6.562  -7.331  -0.038  0.00  0.00     0.028 C 
ATOM      2  C15 ZIN AC000      -7.198  -7.178   1.359  0.00  0.00     0.043 C 
ATOM      3  C34 ZIN AC000      -7.815  -8.568   1.651  0.00  0.00     0.128 C 
ATOM      4  C37 ZIN AC000      -6.768  -9.539   1.051  0.00  0.00     0.064 C 
ATOM      5  C38 ZIN AC000      -6.289  -8.832  -0.235  0.00  0.00     0.125 C 
ENDROOT
BRANCH   2   6
ATOM      6  C17 ZIN AC000      -8.268  -6.117   1.339  0.00  0.00    -0.021 C 
ATOM      7  C18 ZIN AC000      -8.161  -5.064   2.111  0.00  0.00     0.003 C 
BRANCH   7   8
ATOM      8  C19 ZIN AC000      -9.231  -4.003   2.090  0.00  0.00     0.165 C 
BRANCH   8   9
ATOM      9  O21 ZIN AC000     -10.303  -4.424   1.244  0.00  0.00    -0.390 OA
ATOM     10  H60 ZIN AC000     -10.724  -5.248   1.524  0.00  0.00     0.210 HD
ENDBRANCH   8   9
BRANCH   8  11
ATOM     11  C22 ZIN AC000      -9.758  -3.782   3.510  0.00  0.00     0.211 C 
BRANCH  11  12
ATOM     12  O23 ZIN AC000     -10.688  -2.697   3.509  0.00  0.00    -0.348 OA
BRANCH  12  13
ATOM     13  C24 ZIN AC000     -11.253  -2.369   4.701  0.00  0.00     0.069 A 
ATOM     14  C33 ZIN AC000     -12.165  -1.325   4.773  0.00  0.00     0.052 A 
ATOM     15  C28 ZIN AC000     -12.742  -0.996   5.984  0.00  0.00     0.050 A 
ATOM     16  C27 ZIN AC000     -12.404  -1.699   7.126  0.00  0.00     0.016 A 
ATOM     17  C26 ZIN AC000     -11.492  -2.736   7.057  0.00  0.00     0.004 A 
ATOM     18  C25 ZIN AC000     -10.916  -3.072   5.847  0.00  0.00     0.037 A 
BRANCH  15  19
ATOM     19  C29 ZIN AC000     -13.737   0.133   6.062  0.00  0.00     0.417 C 
ATOM     20  F30 ZIN AC000     -14.175   0.278   7.383  0.00  0.00    -0.166 F 
ATOM     21  F31 ZIN AC000     -13.130   1.320   5.638  0.00  0.00    -0.166 F 
ATOM     22  F32 ZIN AC000     -14.831  -0.152   5.237  0.00  0.00    -0.166 F 
ENDBRANCH  15  19
ENDBRANCH  12  13
ENDBRANCH  11  12
ENDBRANCH   8  11
ENDBRANCH   7   8
ENDBRANCH   2   6
BRANCH   1  23
ATOM     23  C12 ZIN AC000      -5.251  -6.546  -0.106  0.00  0.00     0.034 C 
BRANCH  23  24
ATOM     24  C11 ZIN AC000      -4.695  -6.617  -1.505  0.00  0.00    -0.030 C 
ATOM     25  C10 ZIN AC000      -4.394  -5.516  -2.147  0.00  0.00    -0.031 C 
BRANCH  25  26
ATOM     26  C9  ZIN AC000      -4.440  -4.190  -1.432  0.00  0.00     0.027 C 
BRANCH  26  27
ATOM     27  C8  ZIN AC000      -3.111  -3.458  -1.628  0.00  0.00     0.013 C 
BRANCH  27  28
ATOM     28  C7  ZIN AC000      -3.158  -2.112  -0.901  0.00  0.00     0.111 C 
BRANCH  28  29
ATOM     29  C5  ZIN AC000      -1.849  -1.391  -1.095  0.00  0.00     0.259 C 
ATOM     30  O6  ZIN AC000      -0.969  -1.901  -1.746  0.00  0.00    -0.265 OA
BRANCH  29  31
ATOM     31  O4  ZIN AC000      -1.661  -0.182  -0.543  0.00  0.00    -0.317 OA
BRANCH  31  32
ATOM     32  C2  ZIN AC000      -0.376   0.454  -0.770  0.00  0.00     0.123 C 
ATOM     33  C1  ZIN AC000      -0.551   1.974  -0.770  0.00  0.00     0.040 C 
ATOM     34  C3  ZIN AC000       0.596   0.052   0.342  0.00  0.00     0.040 C 
ENDBRANCH  31  32
ENDBRANCH  29  31
ENDBRANCH  28  29
ENDBRANCH  27  28
ENDBRANCH  26  27
ENDBRANCH  25  26
ENDBRANCH  23  24
ENDBRANCH   1  23
BRANCH   3  35
ATOM     35  O36 ZIN AC000      -7.955  -8.775   3.058  0.00  0.00    -0.395 OA
ATOM     36  H67 ZIN AC000      -8.337  -9.632   3.293  0.00  0.00     0.210 HD
ENDBRANCH   3  35
BRANCH   5  37
ATOM     37  O40 ZIN AC000      -4.890  -9.056  -0.425  0.00  0.00    -0.395 OA
ATOM     38  H70 ZIN AC000      -4.652  -9.986  -0.533  0.00  0.00     0.210 HD
ENDBRANCH   5  37
TORSDOF 17
