REMARK  7 active torsions:
REMARK  status: ('A' for Active; 'I' for Inactive)
REMARK    1  A    between atoms: C2_2  and  O3_3 
REMARK    2  A    between atoms: C2_2  and  C4_4 
REMARK    3  A    between atoms: C2_2  and  C15_15 
REMARK    4  A    between atoms: C4_4  and  S5_5 
REMARK    5  A    between atoms: S5_5  and  C8_8 
REMARK       I    between atoms: C15_15  and  N17_17 
REMARK    6  A    between atoms: N17_17  and  C18_18 
REMARK    7  A    between atoms: C24_24  and  C25_25 
ROOT
ATOM      1  C18 ZIN AC000      -3.410  -1.053   1.185  0.00  0.00     0.035 A 
ATOM      2  C19 ZIN AC000      -3.879  -1.946   0.228  0.00  0.00     0.031 A 
ATOM      3  C20 ZIN AC000      -5.203  -2.326   0.229  0.00  0.00     0.026 A 
ATOM      4  C21 ZIN AC000      -6.075  -1.813   1.192  0.00  0.00     0.059 A 
ATOM      5  C22 ZIN AC000      -7.452  -2.206   1.196  0.00  0.00     0.100 C 
ATOM      6  N23 ZIN AC000      -8.544  -2.518   1.199  0.00  0.00    -0.191 NA
ATOM      7  C24 ZIN AC000      -5.600  -0.915   2.153  0.00  0.00     0.070 A 
ATOM      8  C29 ZIN AC000      -4.274  -0.544   2.149  0.00  0.00     0.047 A 
ENDROOT
BRANCH   7   9
ATOM      9  C25 ZIN AC000      -6.536  -0.359   3.194  0.00  0.00     0.419 C 
ATOM     10  F26 ZIN AC000      -5.834   0.510   4.036  0.00  0.00    -0.166 F 
ATOM     11  F27 ZIN AC000      -7.573   0.338   2.565  0.00  0.00    -0.166 F 
ATOM     12  F28 ZIN AC000      -7.071  -1.409   3.949  0.00  0.00    -0.166 F 
ENDBRANCH   7   9
BRANCH   1  13
ATOM     13  N17 ZIN AC000      -2.068  -0.670   1.181  0.00  0.00    -0.325 N 
ATOM     14  C15 ZIN AC000      -1.412  -0.523   0.013  0.00  0.00     0.257 C 
ATOM     15  O16 ZIN AC000      -1.963  -0.805  -1.031  0.00  0.00    -0.270 OA
ATOM     16  H40 ZIN AC000      -1.607  -0.509   2.019  0.00  0.00     0.169 HD
BRANCH  14  17
ATOM     17  C2  ZIN AC000       0.005  -0.010   0.003  0.00  0.00     0.148 C 
ATOM     18  C1  ZIN AC000      -0.007   1.520   0.019  0.00  0.00     0.057 C 
BRANCH  17  19
ATOM     19  O3  ZIN AC000       0.694  -0.494   1.157  0.00  0.00    -0.380 OA
ATOM     20  H33 ZIN AC000       0.740  -1.458   1.212  0.00  0.00     0.211 HD
ENDBRANCH  17  19
BRANCH  17  21
ATOM     21  C4  ZIN AC000       0.716  -0.501  -1.260  0.00  0.00     0.193 C 
BRANCH  21  22
ATOM     22  S5  ZIN AC000       2.372   0.235  -1.346  0.00  0.00     0.178 S 
ATOM     23  O6  ZIN AC000       2.283   1.634  -1.581  0.00  0.00    -0.222 OA
ATOM     24  O7  ZIN AC000       3.203  -0.284  -0.317  0.00  0.00    -0.222 OA
BRANCH  22  25
ATOM     25  C8  ZIN AC000       3.064  -0.412  -2.831  0.00  0.00     0.059 A 
ATOM     26  C14 ZIN AC000       2.890   0.263  -4.025  0.00  0.00     0.026 A 
ATOM     27  C13 ZIN AC000       3.437  -0.242  -5.190  0.00  0.00     0.044 A 
ATOM     28  C11 ZIN AC000       4.150  -1.428  -5.163  0.00  0.00     0.116 A 
ATOM     29  C10 ZIN AC000       4.319  -2.106  -3.967  0.00  0.00     0.044 A 
ATOM     30  F12 ZIN AC000       4.681  -1.925  -6.302  0.00  0.00    -0.206 F 
ATOM     31  C9  ZIN AC000       3.775  -1.597  -2.803  0.00  0.00     0.026 A 
ENDBRANCH  22  25
ENDBRANCH  21  22
ENDBRANCH  17  21
ENDBRANCH  14  17
ENDBRANCH   1  13
TORSDOF 7
