REMARK  2 active torsions:
REMARK  status: ('A' for Active; 'I' for Inactive)
REMARK    1  A    between atoms: C3_3  and  O4_4 
REMARK    2  A    between atoms: C15_13  and  O16_14 
ROOT
ATOM      1  C1  <0> d           0.065  -1.198   0.046  0.00  0.00     0.015 C 
ATOM      2  C2  <0> d           0.032  -0.024   0.053  0.00  0.00    -0.078 C 
ATOM      3  C3  <0> d          -0.009   1.448   0.062  0.00  0.00     0.128 C 
ATOM      4  C5  <0> d          -0.718   1.973  -1.211  0.00  0.00     0.052 C 
ATOM      5  C6  <0> d           0.352   2.762  -2.014  0.00  0.00     0.010 C 
ATOM      6  C7  <0> d           1.669   2.148  -1.527  0.00  0.00     0.002 C 
ATOM      7  C9  <0> d           2.906   3.006  -1.695  0.00  0.00    -0.001 C 
ATOM      8  C11 <0> d           3.212   3.281  -3.167  0.00  0.00     0.010 C 
ATOM      9  C12 <0> d           4.351   4.298  -3.236  0.00  0.00     0.039 C 
ATOM     10  C13 <0> d           5.493   3.902  -2.337  0.00  0.00    -0.049 A 
ATOM     11  C14 <0> d           6.713   4.534  -2.530  0.00  0.00     0.044 A 
ATOM     12  C15 <0> d           7.802   4.223  -1.733  0.00  0.00     0.066 A 
ATOM     13  C17 <0> d           7.672   3.272  -0.732  0.00  0.00     0.037 A 
ATOM     14  C18 <0> d           6.460   2.643  -0.542  0.00  0.00     0.011 A 
ATOM     15  C19 <0> d           5.369   2.951  -1.345  0.00  0.00    -0.047 A 
ATOM     16  C20 <0> d           4.078   2.227  -1.084  0.00  0.00     0.023 C 
ATOM     17  C22 <0> d           3.864   1.965   0.400  0.00  0.00     0.010 C 
ATOM     18  C23 <0> d           2.533   1.226   0.635  0.00  0.00     0.014 C 
ATOM     19  C24 <0> d           1.405   2.015  -0.001  0.00  0.00     0.003 C 
ATOM     20  C25 <0> d           1.401   3.442   0.553  0.00  0.00     0.020 C 
ENDROOT
BRANCH   3  21
ATOM     21  O4  <0> d          -0.679   1.916   1.234  0.00  0.00    -0.377 OA
ATOM     22  H27 <0> d          -1.590   1.603   1.318  0.00  0.00     0.211 HD
ENDBRANCH   3  21
BRANCH  12  23
ATOM     23  O16 <0> d           8.993   4.847  -1.931  0.00  0.00    -0.361 OA
ATOM     24  H37 <0> d           9.101   5.660  -1.419  0.00  0.00     0.217 HD
ENDBRANCH  12  23
TORSDOF 2
