REMARK  2 active torsions:
REMARK  status: ('A' for Active; 'I' for Inactive)
REMARK    1  A    between atoms: C8_8  and  N9_9 
REMARK    2  A    between atoms: N9_9  and  C10_10 
ROOT
ATOM      1 Cl1  ZIN AC000       0.868   1.613  -2.565  0.00  0.00    -0.082 Cl
ATOM      2  C2  ZIN AC000       0.364   2.451  -1.131  0.00  0.00     0.063 A 
ATOM      3  C3  ZIN AC000      -0.844   3.123  -1.111  0.00  0.00     0.026 A 
ATOM      4  C4  ZIN AC000      -1.247   3.790   0.031  0.00  0.00     0.003 A 
ATOM      5  C5  ZIN AC000      -0.444   3.789   1.157  0.00  0.00     0.026 A 
ATOM      6  C6  ZIN AC000       0.765   3.119   1.144  0.00  0.00     0.063 A 
ATOM      7 Cl7  ZIN AC000       1.773   3.117   2.557  0.00  0.00    -0.082 Cl
ATOM      8  C8  ZIN AC000       1.171   2.442  -0.000  0.00  0.00     0.092 A 
ENDROOT
BRANCH   8   9
ATOM      9  N9  ZIN AC000       2.395   1.763  -0.017  0.00  0.00    -0.187 N 
ATOM     10  H18 ZIN AC000       3.198   2.218  -0.314  0.00  0.00     0.184 HD
BRANCH   9  11
ATOM     11  C10 ZIN AC000       2.458   0.449   0.388  0.00  0.00     0.696 A 
ATOM     12  N14 ZIN AC000       3.635  -0.242   0.486  0.00  0.00    -0.223 N 
ATOM     13  C13 ZIN AC000       3.334  -1.608   0.947  0.00  0.00     0.160 A 
ATOM     14  H23 ZIN AC000       4.517   0.109   0.291  0.00  0.00     0.177 HD
ATOM     15  C12 ZIN AC000       1.799  -1.603   1.091  0.00  0.00     0.189 A 
ATOM     16  N11 ZIN AC000       1.410  -0.240   0.703  0.00  0.00    -0.106 NA
ENDBRANCH   9  11
ENDBRANCH   8   9
TORSDOF 2
