REMARK  5 active torsions:
REMARK  status: ('A' for Active; 'I' for Inactive)
REMARK    1  A    between atoms: C2_2  and  N3_3 
REMARK    2  A    between atoms: N3_3  and  C4_4 
REMARK    3  A    between atoms: N3_3  and  C6_6 
REMARK    4  A    between atoms: C6_6  and  C7_7 
REMARK       I    between atoms: C7_7  and  N9_9 
REMARK    5  A    between atoms: N9_9  and  C10_10 
ROOT
ATOM      1  C7  ZIN AC000       2.965   0.943   2.069  0.00  0.00     0.250 C 
ATOM      2  O8  ZIN AC000       2.399   1.414   3.033  0.00  0.00    -0.271 OA
ATOM      3  N9  ZIN AC000       3.777   1.715   1.320  0.00  0.00    -0.325 N 
ATOM      4  H30 ZIN AC000       4.198   1.349   0.526  0.00  0.00     0.169 HD
ENDROOT
BRANCH   3   5
ATOM      5  C10 ZIN AC000       4.013   3.045   1.687  0.00  0.00     0.046 A 
ATOM      6  C16 ZIN AC000       5.310   3.482   1.922  0.00  0.00    -0.035 A 
ATOM      7  C15 ZIN AC000       5.539   4.797   2.278  0.00  0.00     0.009 A 
ATOM      8  C17 ZIN AC000       6.466   2.527   1.774  0.00  0.00     0.050 C 
ATOM      9  C14 ZIN AC000       4.479   5.674   2.413  0.00  0.00     0.001 A 
ATOM     10  C13 ZIN AC000       3.186   5.239   2.186  0.00  0.00     0.009 A 
ATOM     11  C11 ZIN AC000       2.950   3.928   1.823  0.00  0.00    -0.035 A 
ATOM     12  C12 ZIN AC000       1.540   3.455   1.577  0.00  0.00     0.050 C 
ENDBRANCH   3   5
BRANCH   1  13
ATOM     13  C6  ZIN AC000       2.760  -0.506   1.709  0.00  0.00     0.374 C 
BRANCH  13  14
ATOM     14  N3  ZIN AC000       1.907  -1.146   2.719  0.00  0.00     0.096 N 
BRANCH  14  15
ATOM     15  C2  ZIN AC000       1.372  -2.422   2.225  0.00  0.00     0.268 C 
ATOM     16  C1  ZIN AC000       0.308  -2.151   1.160  0.00  0.00     0.037 C 
ENDBRANCH  14  15
BRANCH  14  17
ATOM     17  C4  ZIN AC000       2.635  -1.333   3.981  0.00  0.00     0.268 C 
ATOM     18  C5  ZIN AC000       1.657  -1.766   5.075  0.00  0.00     0.037 C 
ENDBRANCH  14  17
ENDBRANCH  13  14
ENDBRANCH   1  13
TORSDOF 5
