REMARK  8 active torsions:
REMARK  status: ('A' for Active; 'I' for Inactive)
REMARK    1  A    between atoms: O2_2  and  C3_3 
REMARK    2  A    between atoms: C3_3  and  C5_5 
REMARK    3  A    between atoms: C11_11  and  C12_12 
REMARK    4  A    between atoms: C12_12  and  O14_14 
REMARK    5  A    between atoms: O14_14  and  C15_15 
REMARK    6  A    between atoms: C15_15  and  C16_16 
REMARK    7  A    between atoms: C19_19  and  C21_20 
REMARK    8  A    between atoms: C26_25  and  N27_26 
ROOT
ATOM      1  C5  ZIN AC000      -2.805   1.223   6.232  0.00  0.00     0.052 C 
ATOM      2  C6  ZIN AC000      -2.478   0.906   7.497  0.00  0.00     0.018 C 
ATOM      3  C7  ZIN AC000      -3.473   1.141   8.604  0.00  0.00     0.069 C 
ATOM      4  N8  ZIN AC000      -1.252   0.374   7.791  0.00  0.00    -0.362 N 
ATOM      5  C9  ZIN AC000      -0.487  -0.181   6.802  0.00  0.00     0.018 C 
ATOM      6  C10 ZIN AC000       0.643  -1.108   7.168  0.00  0.00     0.069 C 
ATOM      7  C11 ZIN AC000      -0.728   0.095   5.509  0.00  0.00     0.052 C 
ATOM      8  C19 ZIN AC000      -1.842   1.015   5.098  0.00  0.00     0.103 C 
ATOM      9  H36 ZIN AC000      -0.927   0.388   8.705  0.00  0.00     0.165 HD
ENDROOT
BRANCH   8  10
ATOM     10  C21 ZIN AC000      -1.262   2.345   4.690  0.00  0.00    -0.012 A 
ATOM     11  C26 ZIN AC000      -1.570   2.883   3.454  0.00  0.00     0.110 A 
ATOM     12  C25 ZIN AC000      -1.043   4.105   3.082  0.00  0.00     0.037 A 
ATOM     13  C24 ZIN AC000      -0.198   4.784   3.940  0.00  0.00     0.002 A 
ATOM     14  C23 ZIN AC000       0.114   4.244   5.173  0.00  0.00     0.001 A 
ATOM     15  C22 ZIN AC000      -0.418   3.024   5.548  0.00  0.00     0.011 A 
BRANCH  11  16
ATOM     16  N27 ZIN AC000      -2.469   2.153   2.532  0.00  0.00    -0.115 N 
ATOM     17  O28 ZIN AC000      -2.368   0.945   2.412  0.00  0.00    -0.532 OA
ATOM     18  O29 ZIN AC000      -3.311   2.760   1.895  0.00  0.00    -0.532 OA
ENDBRANCH  11  16
ENDBRANCH   8  10
BRANCH   1  19
ATOM     19  C3  ZIN AC000      -4.084   1.764   5.963  0.00  0.00     0.291 C 
ATOM     20  O4  ZIN AC000      -4.946   1.067   5.460  0.00  0.00    -0.260 OA
BRANCH  19  21
ATOM     21  O2  ZIN AC000      -4.349   3.052   6.265  0.00  0.00    -0.323 OA
ATOM     22  C1  ZIN AC000      -5.662   3.532   5.966  0.00  0.00     0.213 C 
ENDBRANCH  19  21
ENDBRANCH   1  19
BRANCH   7  23
ATOM     23  C12 ZIN AC000       0.082  -0.498   4.513  0.00  0.00     0.292 C 
ATOM     24  O13 ZIN AC000       1.039  -1.179   4.832  0.00  0.00    -0.259 OA
BRANCH  23  25
ATOM     25  O14 ZIN AC000      -0.206  -0.310   3.208  0.00  0.00    -0.317 OA
BRANCH  25  26
ATOM     26  C15 ZIN AC000       0.654  -0.939   2.256  0.00  0.00     0.183 C 
BRANCH  26  27
ATOM     27  C16 ZIN AC000       0.172  -0.613   0.841  0.00  0.00     0.002 C 
ATOM     28  C17 ZIN AC000       0.316   0.888   0.586  0.00  0.00     0.011 C 
ATOM     29  C18 ZIN AC000       1.016  -1.386  -0.175  0.00  0.00     0.011 C 
ENDBRANCH  26  27
ENDBRANCH  25  26
ENDBRANCH  23  25
ENDBRANCH   7  23
TORSDOF 8
