REMARK  3 active torsions:
REMARK  status: ('A' for Active; 'I' for Inactive)
REMARK    1  A    between atoms: C6_6  and  N7_7 
REMARK    2  A    between atoms: N7_7  and  C8_8 
REMARK    3  A    between atoms: C13_13  and  C14_14 
ROOT
ATOM      1  N7  RES d   1       0.042  -2.796   2.365  0.00  0.00    -0.355 N 
ATOM      2  H25 RES d   1       0.190  -2.316   3.195  0.00  0.00     0.166 HD
ENDROOT
BRANCH   1   3
ATOM      3  C6  RES d   1      -0.087  -2.093   1.165  0.00  0.00     0.039 A 
ATOM      4  C5  RES d   1      -0.226  -2.782  -0.034  0.00  0.00     0.030 A 
ATOM      5  C4  RES d   1      -0.354  -2.084  -1.219  0.00  0.00     0.003 A 
ATOM      6  C3  RES d   1      -0.343  -0.701  -1.213  0.00  0.00     0.007 A 
ATOM      7  C2  RES d   1      -0.205  -0.012  -0.022  0.00  0.00    -0.054 A 
ATOM      8  C1  RES d   1      -0.195   1.495  -0.020  0.00  0.00     0.049 C 
ATOM      9  C17 RES d   1      -0.071  -0.704   1.166  0.00  0.00    -0.029 A 
ATOM     10  C18 RES d   1       0.080   0.047   2.464  0.00  0.00     0.051 C 
ENDBRANCH   1   3
BRANCH   1  11
ATOM     11  C8  RES d   1      -0.041  -4.181   2.371  0.00  0.00     0.049 A 
ATOM     12  C13 RES d   1       1.072  -4.958   2.003  0.00  0.00     0.067 A 
ATOM     13  C12 RES d   1       0.976  -6.353   2.019  0.00  0.00     0.021 A 
ATOM     14  C11 RES d   1      -0.208  -6.955   2.382  0.00  0.00     0.001 A 
ATOM     15  C10 RES d   1      -1.306  -6.187   2.739  0.00  0.00     0.002 A 
ATOM     16  C9  RES d   1      -1.226  -4.809   2.734  0.00  0.00     0.030 A 
BRANCH  12  17
ATOM     17  C14 RES d   1       2.333  -4.307   1.616  0.00  0.00     0.211 C 
ATOM     18  O15 RES d   1       3.269  -4.981   1.208  0.00  0.00    -0.644 OA
ATOM     19  O16 RES d   1       2.446  -3.092   1.702  0.00  0.00    -0.644 OA
ENDBRANCH  12  17
ENDBRANCH   1  11
TORSDOF 3
