REMARK  3 active torsions:
REMARK  status: ('A' for Active; 'I' for Inactive)
REMARK    1  A    between atoms: N2_2  and  C5_5 
REMARK    2  A    between atoms: C5_5  and  C6_6 
REMARK    3  A    between atoms: C6_6  and  C7_7 
ROOT
ATOM      1  C7  ZIN AC000       2.864  -0.539  -2.397  0.00  0.00    -0.012 C 
ATOM      2  C8  ZIN AC000       3.525   0.327  -3.174  0.00  0.00    -0.018 C 
ATOM      3  C9  ZIN AC000       3.593   1.778  -2.845  0.00  0.00    -0.019 A 
ATOM      4  C10 ZIN AC000       4.079   2.140  -1.588  0.00  0.00     0.013 A 
ATOM      5  C11 ZIN AC000       4.186   3.468  -1.236  0.00  0.00     0.001 A 
ATOM      6  C12 ZIN AC000       3.808   4.439  -2.147  0.00  0.00     0.001 A 
ATOM      7  C13 ZIN AC000       3.320   4.083  -3.384  0.00  0.00     0.008 A 
ATOM      8  C14 ZIN AC000       3.188   2.745  -3.760  0.00  0.00    -0.047 A 
ATOM      9  C15 ZIN AC000       2.578   2.536  -5.127  0.00  0.00     0.044 C 
ATOM     10  C16 ZIN AC000       2.386   1.079  -5.491  0.00  0.00     0.044 C 
ATOM     11  C17 ZIN AC000       3.692   0.338  -5.594  0.00  0.00    -0.047 A 
ATOM     12  C18 ZIN AC000       4.331   0.101  -6.788  0.00  0.00     0.008 A 
ATOM     13  C19 ZIN AC000       5.511  -0.631  -6.780  0.00  0.00     0.001 A 
ATOM     14  C20 ZIN AC000       6.032  -1.117  -5.594  0.00  0.00     0.001 A 
ATOM     15  C21 ZIN AC000       5.394  -0.863  -4.391  0.00  0.00     0.013 A 
ATOM     16  C22 ZIN AC000       4.234  -0.113  -4.407  0.00  0.00    -0.019 A 
ENDROOT
BRANCH   1  17
ATOM     17  C6  ZIN AC000       2.159  -0.053  -1.157  0.00  0.00     0.055 C 
BRANCH  17  18
ATOM     18  C5  ZIN AC000       0.690  -0.478  -1.207  0.00  0.00     0.237 C 
BRANCH  18  19
ATOM     19  N2  ZIN AC000       0.002  -0.004   0.002  0.00  0.00    -0.079 N 
ATOM     20  C1  ZIN AC000      -0.018   1.465   0.010  0.00  0.00     0.269 C 
ATOM     21  H3  ZIN AC000       0.490  -0.338   0.820  0.00  0.00     0.278 HD
ATOM     22  C4  ZIN AC000      -1.376  -0.512   0.012  0.00  0.00     0.269 C 
ENDBRANCH  18  19
ENDBRANCH  17  18
ENDBRANCH   1  17
TORSDOF 3
