REMARK  11 active torsions:
REMARK  status: ('A' for Active; 'I' for Inactive)
REMARK    1  A    between atoms: C2_2  and  C3_3 
REMARK    2  A    between atoms: C3_3  and  O4_4 
REMARK    3  A    between atoms: O4_4  and  C5_5 
REMARK    4  A    between atoms: C8_8  and  C9_9 
REMARK    5  A    between atoms: C9_9  and  O11_11 
REMARK    6  A    between atoms: O11_11  and  C12_12 
REMARK    7  A    between atoms: C12_12  and  C13_13 
REMARK    8  A    between atoms: C13_13  and  N14_14 
REMARK    9  A    between atoms: N14_14  and  C15_15 
REMARK   10  A    between atoms: N14_14  and  C17_17 
REMARK   11  A    between atoms: C20_20  and  N21_21 
ROOT
ATOM      1  C5  ZIN AC000       1.644  -3.769   2.136  0.00  0.00     0.095 A 
ATOM      2  C6  ZIN AC000       2.067  -2.805   3.040  0.00  0.00     0.040 A 
ATOM      3  C7  ZIN AC000       2.747  -3.175   4.181  0.00  0.00     0.020 A 
ATOM      4  C8  ZIN AC000       3.012  -4.524   4.430  0.00  0.00     0.041 A 
ATOM      5  C19 ZIN AC000       2.587  -5.497   3.520  0.00  0.00     0.049 A 
ATOM      6  C20 ZIN AC000       1.901  -5.120   2.381  0.00  0.00     0.060 A 
ENDROOT
BRANCH   4   7
ATOM      7  C9  ZIN AC000       3.740  -4.921   5.650  0.00  0.00     0.293 C 
ATOM      8  O10 ZIN AC000       3.970  -6.095   5.865  0.00  0.00    -0.259 OA
BRANCH   7   9
ATOM      9  O11 ZIN AC000       4.149  -3.982   6.526  0.00  0.00    -0.316 OA
BRANCH   9  10
ATOM     10  C12 ZIN AC000       4.859  -4.446   7.705  0.00  0.00     0.209 C 
BRANCH  10  11
ATOM     11  C13 ZIN AC000       5.240  -3.246   8.574  0.00  0.00     0.299 C 
BRANCH  11  12
ATOM     12  N14 ZIN AC000       4.022  -2.607   9.089  0.00  0.00     0.089 N 
BRANCH  12  13
ATOM     13  C15 ZIN AC000       4.330  -1.721  10.220  0.00  0.00     0.268 C 
ATOM     14  C16 ZIN AC000       3.041  -1.392  10.976  0.00  0.00     0.037 C 
ENDBRANCH  12  13
BRANCH  12  15
ATOM     15  C17 ZIN AC000       3.320  -1.878   8.025  0.00  0.00     0.268 C 
ATOM     16  C18 ZIN AC000       4.278  -0.880   7.372  0.00  0.00     0.037 C 
ENDBRANCH  12  15
ENDBRANCH  11  12
ENDBRANCH  10  11
ENDBRANCH   9  10
ENDBRANCH   7   9
ENDBRANCH   4   7
BRANCH   6  17
ATOM     17  N21 ZIN AC000       1.472  -6.091   1.468  0.00  0.00    -0.397 N 
ATOM     18  H46 ZIN AC000       1.656  -7.028   1.635  0.00  0.00     0.156 HD
ATOM     19  H47 ZIN AC000       0.991  -5.826   0.668  0.00  0.00     0.156 HD
ENDBRANCH   6  17
BRANCH   1  20
ATOM     20  O4  ZIN AC000       0.975  -3.399   1.014  0.00  0.00    -0.349 OA
BRANCH  20  21
ATOM     21  C3  ZIN AC000       0.746  -2.001   0.827  0.00  0.00     0.175 C 
BRANCH  21  22
ATOM     22  C2  ZIN AC000      -0.016  -1.780  -0.481  0.00  0.00     0.022 C 
ATOM     23  C1  ZIN AC000      -0.260  -0.283  -0.682  0.00  0.00     0.007 C 
ENDBRANCH  21  22
ENDBRANCH  20  21
ENDBRANCH   1  20
TORSDOF 11
