REMARK  6 active torsions:
REMARK  status: ('A' for Active; 'I' for Inactive)
REMARK    1  A    between atoms: C2_2  and  C4_4 
REMARK    2  A    between atoms: C4_4  and  C5_5 
REMARK    3  A    between atoms: C5_5  and  C7_6 
REMARK    4  A    between atoms: C5_5  and  C12_11 
REMARK    5  A    between atoms: C7_6  and  N8_7 
REMARK    6  A    between atoms: C12_11  and  C13_12 
ROOT
ATOM      1  C5  <0> d          -2.101  -0.019  -1.235  0.00  0.00     0.021 C 
ENDROOT
BRANCH   1   2
ATOM      2  C4  <0> d          -1.438  -0.602   0.015  0.00  0.00     0.010 C 
BRANCH   2   3
ATOM      3  C2  <0> d          -1.390  -2.127  -0.098  0.00  0.00    -0.022 C 
ATOM      4  C1  <0> d          -0.463  -2.524  -1.249  0.00  0.00     0.009 C 
ATOM      5  C3  <0> d          -0.860  -2.718   1.210  0.00  0.00     0.009 C 
ENDBRANCH   2   3
ENDBRANCH   1   2
BRANCH   1   6
ATOM      6  C7  <0> d          -2.026   1.508  -1.187  0.00  0.00     0.234 C 
BRANCH   6   7
ATOM      7  N8  <0> d          -0.623   1.933  -1.268  0.00  0.00    -0.079 N 
ATOM      8  H9  <0> d          -0.105   1.532  -0.501  0.00  0.00     0.274 HD
ATOM      9  H10 <0> d          -0.226   1.619  -2.142  0.00  0.00     0.274 HD
ATOM     10  H11 <0> d          -0.572   2.940  -1.219  0.00  0.00     0.274 HD
ENDBRANCH   6   7
ENDBRANCH   1   6
BRANCH   1  11
ATOM     11  C12 <0> d          -3.566  -0.457  -1.288  0.00  0.00     0.119 C 
BRANCH  11  12
ATOM     12  C13 <0> d          -4.185   0.013  -2.578  0.00  0.00     0.172 C 
ATOM     13  O14 <0> d          -3.516   0.640  -3.382  0.00  0.00    -0.648 OA
ATOM     14  O15 <0> d          -5.354  -0.234  -2.819  0.00  0.00    -0.648 OA
ENDBRANCH  11  12
ENDBRANCH   1  11
TORSDOF 6
