REMARK  4 active torsions:
REMARK  status: ('A' for Active; 'I' for Inactive)
REMARK    1  A    between atoms: C2_2  and  O3_3 
REMARK    2  A    between atoms: O3_3  and  C4_4 
REMARK    3  A    between atoms: C4_4  and  C5_5 
REMARK    4  A    between atoms: C4_4  and  C9_9 
ROOT
ATOM      1  C4  ZIN AC000       1.974   1.780  -1.268  0.00  0.00     0.339 C 
ENDROOT
BRANCH   1   2
ATOM      2  O3  ZIN AC000       1.324   1.889  -0.000  0.00  0.00    -0.339 OA
BRANCH   2   3
ATOM      3  C2  ZIN AC000      -0.017   1.395   0.010  0.00  0.00     0.392 C 
ATOM      4  F1  ZIN AC000       0.002  -0.004   0.002  0.00  0.00    -0.227 F 
ENDBRANCH   2   3
ENDBRANCH   1   2
BRANCH   1   5
ATOM      5  C5  ZIN AC000       1.720   3.051  -2.083  0.00  0.00     0.421 C 
ATOM      6  F6  ZIN AC000       2.228   4.156  -1.392  0.00  0.00    -0.168 F 
ATOM      7  F7  ZIN AC000       2.357   2.944  -3.324  0.00  0.00    -0.168 F 
ATOM      8  F8  ZIN AC000       0.344   3.213  -2.276  0.00  0.00    -0.168 F 
ENDBRANCH   1   5
BRANCH   1   9
ATOM      9  C9  ZIN AC000       3.479   1.603  -1.056  0.00  0.00     0.421 C 
ATOM     10  F10 ZIN AC000       3.711   0.441  -0.312  0.00  0.00    -0.168 F 
ATOM     11  F11 ZIN AC000       4.115   1.496  -2.297  0.00  0.00    -0.168 F 
ATOM     12  F12 ZIN AC000       3.986   2.708  -0.365  0.00  0.00    -0.168 F 
ENDBRANCH   1   9
TORSDOF 4
