REMARK  3 active torsions:
REMARK  status: ('A' for Active; 'I' for Inactive)
REMARK    1  A    between atoms: N1_1  and  C2_2 
REMARK    2  A    between atoms: C6_6  and  N7_7 
REMARK    3  A    between atoms: N7_7  and  C8_8 
ROOT
ATOM      1  C2  ZIN AC000       0.047  -0.006   0.125  0.00  0.00     0.029 A 
ATOM      2  C3  ZIN AC000      -0.333  -0.661  -1.039  0.00  0.00     0.055 A 
ATOM      3  C4  ZIN AC000      -0.330  -2.042  -1.088  0.00  0.00     0.065 A 
ATOM      4 Cl5  ZIN AC000      -0.804  -2.860  -2.544  0.00  0.00    -0.082 Cl
ATOM      5  C6  ZIN AC000       0.054  -2.775   0.027  0.00  0.00     0.092 A 
ATOM      6  C13 ZIN AC000       0.435  -2.120   1.191  0.00  0.00     0.065 A 
ATOM      7 Cl14 ZIN AC000       0.915  -3.037   2.586  0.00  0.00    -0.082 Cl
ATOM      8  C15 ZIN AC000       0.436  -0.739   1.238  0.00  0.00     0.055 A 
ENDROOT
BRANCH   5   9
ATOM      9  N7  ZIN AC000       0.059  -4.177  -0.023  0.00  0.00    -0.187 N 
ATOM     10  H19 ZIN AC000      -0.733  -4.674   0.237  0.00  0.00     0.184 HD
BRANCH   9  11
ATOM     11  C8  ZIN AC000       1.185  -4.847  -0.440  0.00  0.00     0.696 A 
ATOM     12  N12 ZIN AC000       1.236  -6.209  -0.567  0.00  0.00    -0.223 N 
ATOM     13  C11 ZIN AC000       2.582  -6.582  -1.033  0.00  0.00     0.160 A 
ATOM     14  H24 ZIN AC000       0.507  -6.823  -0.385  0.00  0.00     0.177 HD
ATOM     15  C10 ZIN AC000       3.305  -5.226  -1.148  0.00  0.00     0.189 A 
ATOM     16  N9  ZIN AC000       2.290  -4.245  -0.740  0.00  0.00    -0.106 NA
ENDBRANCH   9  11
ENDBRANCH   5   9
BRANCH   1  17
ATOM     17  N1  ZIN AC000       0.043   1.392   0.174  0.00  0.00    -0.399 N 
ATOM     18  H16 ZIN AC000       0.313   1.849   0.986  0.00  0.00     0.156 HD
ATOM     19  H17 ZIN AC000      -0.224   1.904  -0.605  0.00  0.00     0.156 HD
ENDBRANCH   1  17
TORSDOF 3
