REMARK  5 active torsions:
REMARK  status: ('A' for Active; 'I' for Inactive)
REMARK    1  A    between atoms: S2_2  and  C3_3 
REMARK    2  A    between atoms: C3_3  and  C4_4 
REMARK    3  A    between atoms: C4_4  and  C5_5 
REMARK    4  A    between atoms: C5_5  and  N7_6 
REMARK    5  A    between atoms: C5_5  and  C11_10 
ROOT
ATOM      1  C5  <0> d           1.720  -2.237  -2.998  0.00  0.00     0.284 C 
ENDROOT
BRANCH   1   2
ATOM      2  C4  <0> d           0.982  -1.910  -1.698  0.00  0.00     0.054 C 
BRANCH   2   3
ATOM      3  C3  <0> d           0.877  -0.392  -1.539  0.00  0.00     0.076 C 
BRANCH   3   4
ATOM      4  S2  <0> d           0.002  -0.004   0.002  0.00  0.00    -0.173 SA
ATOM      5  C1  <0> d          -0.022   1.810   0.012  0.00  0.00     0.089 C 
ENDBRANCH   3   4
ENDBRANCH   2   3
ENDBRANCH   1   2
BRANCH   1   6
ATOM      6  N7  <0> d           0.920  -1.781  -4.143  0.00  0.00    -0.065 N 
ATOM      7  H8  <0> d           0.778  -0.784  -4.078  0.00  0.00     0.275 HD
ATOM      8  H9  <0> d           1.406  -1.997  -5.000  0.00  0.00     0.275 HD
ATOM      9  H10 <0> d           0.026  -2.249  -4.136  0.00  0.00     0.275 HD
ENDBRANCH   1   6
BRANCH   1  10
ATOM     10  C11 <0> d           1.932  -3.726  -3.094  0.00  0.00     0.204 C 
ATOM     11  O12 <0> d           1.093  -4.428  -3.633  0.00  0.00    -0.646 OA
ATOM     12  O13 <0> d           2.942  -4.229  -2.633  0.00  0.00    -0.646 OA
ENDBRANCH   1  10
TORSDOF 5
