REMARK  3 active torsions:
REMARK  status: ('A' for Active; 'I' for Inactive)
REMARK    1  A    between atoms: C2_2  and  N4_3 
REMARK    2  A    between atoms: C2_2  and  C8_7 
REMARK    3  A    between atoms: C8_7  and  C9_8 
ROOT
ATOM      1  C8  ZIN AC000      -1.433  -0.534   0.013  0.00  0.00     0.070 C 
ENDROOT
BRANCH   1   2
ATOM      2  C2  ZIN AC000       0.002  -0.004   0.002  0.00  0.00     0.183 C 
ATOM      3  C1  ZIN AC000      -0.019   1.526   0.010  0.00  0.00     0.040 C 
BRANCH   2   4
ATOM      4  N4  ZIN AC000       0.690  -0.478  -1.207  0.00  0.00    -0.075 N 
ATOM      5  H5  ZIN AC000       1.636  -0.129  -1.214  0.00  0.00     0.274 HD
ATOM      6  H6  ZIN AC000       0.703  -1.487  -1.212  0.00  0.00     0.274 HD
ATOM      7  H7  ZIN AC000       0.202  -0.144  -2.024  0.00  0.00     0.274 HD
ENDBRANCH   2   4
ENDBRANCH   1   2
BRANCH   1   8
ATOM      8  C9  ZIN AC000      -1.414  -2.036   0.129  0.00  0.00    -0.056 A 
ATOM      9  C14 ZIN AC000      -1.429  -2.634   1.375  0.00  0.00     0.007 A 
ATOM     10  C13 ZIN AC000      -1.415  -4.012   1.481  0.00  0.00     0.001 A 
ATOM     11  C12 ZIN AC000      -1.377  -4.792   0.341  0.00  0.00     0.000 A 
ATOM     12  C11 ZIN AC000      -1.356  -4.195  -0.906  0.00  0.00     0.001 A 
ATOM     13  C10 ZIN AC000      -1.374  -2.817  -1.012  0.00  0.00     0.007 A 
ENDBRANCH   1   8
TORSDOF 3
