REMARK  1 active torsions:
REMARK  status: ('A' for Active; 'I' for Inactive)
REMARK    1  A    between atoms: O1_1  and  C2_2 
ROOT
ATOM      1  C2  ZIN AC000       0.002  -0.004   0.002  0.00  0.00     0.112 A 
ATOM      2  C3  ZIN AC000       0.006  -0.707  -1.220  0.00  0.00     0.102 A 
ATOM      3  N4  ZIN AC000      -0.008  -0.058  -2.388  0.00  0.00    -0.257 NA
ATOM      4  C5  ZIN AC000      -0.004  -0.706  -3.528  0.00  0.00     0.117 A 
ATOM      5  C6  ZIN AC000       0.015  -2.098  -3.579  0.00  0.00     0.020 A 
ATOM      6  C7  ZIN AC000       0.029  -2.823  -2.421  0.00  0.00     0.017 A 
ATOM      7  C8  ZIN AC000       0.025  -2.123  -1.200  0.00  0.00     0.017 A 
ATOM      8  C9  ZIN AC000       0.039  -2.803   0.030  0.00  0.00     0.048 A 
ATOM      9 Cl10 ZIN AC000       0.064  -4.538   0.066  0.00  0.00    -0.083 Cl
ATOM     10  C11 ZIN AC000       0.034  -2.096   1.195  0.00  0.00     0.046 A 
ATOM     11  C12 ZIN AC000       0.023  -0.703   1.187  0.00  0.00     0.043 A 
ATOM     12  I13 ZIN AC000       0.016   0.341   3.004  0.00  0.00    -0.042 I 
ENDROOT
BRANCH   1  13
ATOM     13  O1  ZIN AC000      -0.016   1.355   0.009  0.00  0.00    -0.357 OA
ATOM     14  H14 ZIN AC000       0.862   1.760   0.003  0.00  0.00     0.217 HD
ENDBRANCH   1  13
TORSDOF 1
