REMARK  4 active torsions:
REMARK  status: ('A' for Active; 'I' for Inactive)
REMARK    1  A    between atoms: O2_2  and  C3_3 
REMARK    2  A    between atoms: C6_6  and  C7_7 
REMARK    3  A    between atoms: C12_12  and  C13_13 
REMARK    4  A    between atoms: C21_21  and  C22_22 
ROOT
ATOM      1  C3  ZIN AC000       0.606  -0.607  -1.055  0.00  0.00     0.075 A 
ATOM      2  C4  ZIN AC000       1.172   0.164  -2.061  0.00  0.00     0.038 A 
ATOM      3  C5  ZIN AC000       1.785  -0.445  -3.136  0.00  0.00     0.015 A 
ATOM      4  C6  ZIN AC000       1.836  -1.836  -3.212  0.00  0.00    -0.025 A 
ATOM      5  C20 ZIN AC000       1.266  -2.608  -2.199  0.00  0.00     0.023 A 
ATOM      6  C21 ZIN AC000       0.659  -1.993  -1.125  0.00  0.00    -0.015 A 
ENDROOT
BRANCH   4   7
ATOM      7  C7  ZIN AC000       2.494  -2.494  -4.366  0.00  0.00    -0.025 A 
ATOM      8  C19 ZIN AC000       3.058  -1.721  -5.366  0.00  0.00     0.024 A 
ATOM      9  C18 ZIN AC000       3.684  -2.347  -6.453  0.00  0.00    -0.025 A 
ATOM     10  C10 ZIN AC000       3.720  -3.765  -6.515  0.00  0.00    -0.025 A 
ATOM     11  C17 ZIN AC000       4.271  -1.588  -7.484  0.00  0.00     0.013 A 
ATOM     12  C9  ZIN AC000       3.133  -4.522  -5.484  0.00  0.00     0.013 A 
ATOM     13  C11 ZIN AC000       4.341  -4.391  -7.604  0.00  0.00     0.030 A 
ATOM     14  C8  ZIN AC000       2.536  -3.896  -4.437  0.00  0.00     0.013 A 
ATOM     15  C12 ZIN AC000       4.910  -3.616  -8.605  0.00  0.00     0.041 A 
ATOM     16  C16 ZIN AC000       4.867  -2.211  -8.531  0.00  0.00     0.019 A 
BRANCH  15  17
ATOM     17  C13 ZIN AC000       5.563  -4.269  -9.753  0.00  0.00     0.209 C 
ATOM     18  O14 ZIN AC000       5.603  -5.490  -9.822  0.00  0.00    -0.644 OA
ATOM     19  O15 ZIN AC000       6.066  -3.591 -10.637  0.00  0.00    -0.644 OA
ENDBRANCH  15  17
ENDBRANCH   4   7
BRANCH   6  20
ATOM     20  C22 ZIN AC000       0.044  -2.826  -0.030  0.00  0.00    -0.009 C 
ATOM     21  C30 ZIN AC000       0.229  -4.310  -0.353  0.00  0.00     0.019 C 
ATOM     22  C28 ZIN AC000      -0.397  -5.155   0.758  0.00  0.00    -0.013 C 
ATOM     23  C27 ZIN AC000       0.287  -4.834   2.089  0.00  0.00     0.009 C 
ATOM     24  C29 ZIN AC000      -1.890  -4.838   0.862  0.00  0.00     0.009 C 
ATOM     25  C26 ZIN AC000       0.102  -3.350   2.412  0.00  0.00    -0.013 C 
ATOM     26  C25 ZIN AC000      -1.391  -3.033   2.516  0.00  0.00     0.009 C 
ATOM     27  C31 ZIN AC000       0.727  -2.505   1.301  0.00  0.00     0.019 C 
ATOM     28  C24 ZIN AC000      -2.074  -3.354   1.185  0.00  0.00    -0.013 C 
ATOM     29  C23 ZIN AC000      -1.449  -2.509   0.074  0.00  0.00     0.019 C 
ENDBRANCH   6  20
BRANCH   1  30
ATOM     30  O2  ZIN AC000       0.002  -0.004   0.002  0.00  0.00    -0.355 OA
ATOM     31  C1  ZIN AC000      -0.017   1.425   0.010  0.00  0.00     0.210 C 
ENDBRANCH   1  30
TORSDOF 4
