REMARK  7 active torsions:
REMARK  status: ('A' for Active; 'I' for Inactive)
REMARK    1  A    between atoms: C2_2  and  C3_3 
REMARK    2  A    between atoms: C2_2  and  C20_20 
REMARK    3  A    between atoms: C3_3  and  C4_4 
REMARK    4  A    between atoms: C4_4  and  C5_5 
REMARK    5  A    between atoms: C5_5  and  N6_6 
REMARK    6  A    between atoms: C9_9  and  O10_10 
REMARK    7  A    between atoms: C9_9  and  C11_11 
ROOT
ATOM      1  N6  <0> d           4.900   0.845  -0.040  0.00  0.00     0.088 N 
ATOM      2  C7  <0> d           4.703  -0.232   0.939  0.00  0.00     0.276 C 
ATOM      3  C8  <0> d           5.822  -1.266   0.794  0.00  0.00     0.073 C 
ATOM      4  C9  <0> d           7.173  -0.584   1.023  0.00  0.00     0.088 C 
ATOM      5  C18 <0> d           7.333   0.564   0.022  0.00  0.00     0.073 C 
ATOM      6  C19 <0> d           6.170   1.545   0.190  0.00  0.00     0.276 C 
ENDROOT
BRANCH   1   7
ATOM      7  C5  <0> d           3.771   1.784  -0.024  0.00  0.00     0.272 C 
BRANCH   7   8
ATOM      8  C4  <0> d           2.457   1.001  -0.016  0.00  0.00     0.038 C 
BRANCH   8   9
ATOM      9  C3  <0> d           1.280   1.980   0.001  0.00  0.00     0.085 C 
BRANCH   9  10
ATOM     10  C2  <0> d          -0.014   1.208   0.009  0.00  0.00     0.159 C 
ATOM     11  O1  <0> d           0.002  -0.004   0.002  0.00  0.00    -0.292 OA
BRANCH  10  12
ATOM     12  C20 <0> d          -1.297   1.926   0.019  0.00  0.00     0.010 A 
ATOM     13  C26 <0> d          -2.502   1.213   0.021  0.00  0.00     0.018 A 
ATOM     14  C25 <0> d          -3.700   1.892   0.036  0.00  0.00     0.043 A 
ATOM     15  C23 <0> d          -3.715   3.279   0.038  0.00  0.00     0.116 A 
ATOM     16  C22 <0> d          -2.526   3.992   0.030  0.00  0.00     0.043 A 
ATOM     17  F24 <0> d          -4.894   3.938   0.048  0.00  0.00    -0.206 F 
ATOM     18  C21 <0> d          -1.320   3.325   0.021  0.00  0.00     0.018 A 
ENDBRANCH  10  12
ENDBRANCH   9  10
ENDBRANCH   8   9
ENDBRANCH   7   8
ENDBRANCH   1   7
BRANCH   4  19
ATOM     19  O10 <0> d           7.229  -0.068   2.354  0.00  0.00    -0.385 OA
ATOM     20  H37 <0> d           8.059   0.378   2.569  0.00  0.00     0.211 HD
ENDBRANCH   4  19
BRANCH   4  21
ATOM     21  C11 <0> d           8.283  -1.585   0.824  0.00  0.00    -0.024 A 
ATOM     22  C17 <0> d           9.466  -1.453   1.526  0.00  0.00     0.012 A 
ATOM     23  C16 <0> d          10.481  -2.374   1.349  0.00  0.00     0.024 A 
ATOM     24  C14 <0> d          10.317  -3.421   0.459  0.00  0.00     0.034 A 
ATOM     25  C13 <0> d           9.135  -3.549  -0.248  0.00  0.00     0.024 A 
ATOM     26 Cl15 <0> d          11.595  -4.574   0.230  0.00  0.00    -0.084 Cl
ATOM     27  C12 <0> d           8.118  -2.631  -0.065  0.00  0.00     0.012 A 
ENDBRANCH   4  21
TORSDOF 7
