REMARK  15 active torsions:
REMARK  status: ('A' for Active; 'I' for Inactive)
REMARK    1  A    between atoms: C2_2  and  C3_3 
REMARK    2  A    between atoms: C3_3  and  C4_4 
REMARK    3  A    between atoms: C4_4  and  C5_5 
REMARK    4  A    between atoms: C5_5  and  C6_6 
REMARK    5  A    between atoms: C6_6  and  O8_7 
REMARK    6  A    between atoms: C6_6  and  C9_8 
REMARK    7  A    between atoms: C10_9  and  C11_10 
REMARK    8  A    between atoms: C13_11  and  O15_12 
REMARK    9  A    between atoms: C19_16  and  C21_17 
REMARK   10  A    between atoms: C21_17  and  C22_18 
REMARK   11  A    between atoms: C22_18  and  C23_19 
REMARK   12  A    between atoms: C23_19  and  C24_20 
REMARK   13  A    between atoms: C24_20  and  C25_21 
REMARK   14  A    between atoms: C25_21  and  C26_22 
REMARK   15  A    between atoms: C26_22  and  C27_23 
ROOT
ATOM      1  C11 <0> d          -3.748  -6.158  -1.713  0.00  0.00     0.048 C 
ATOM      2  C13 <0> d          -3.616  -7.686  -1.486  0.00  0.00     0.133 C 
ATOM      3  C16 <0> d          -3.207  -8.194  -2.891  0.00  0.00     0.111 C 
ATOM      4  C17 <0> d          -4.006  -7.333  -3.853  0.00  0.00     0.134 C 
ATOM      5  O18 <0> d          -4.312  -7.620  -4.985  0.00  0.00    -0.297 OA
ATOM      6  C19 <0> d          -4.347  -6.044  -3.130  0.00  0.00     0.065 C 
ENDROOT
BRANCH   1   7
ATOM      7  C10 <0> d          -4.677  -5.550  -0.694  0.00  0.00    -0.020 C 
ATOM      8  C9  <0> d          -4.327  -4.461  -0.056  0.00  0.00     0.001 C 
BRANCH   8   9
ATOM      9  C6  <0> d          -3.050  -3.751  -0.422  0.00  0.00     0.140 C 
BRANCH   9  10
ATOM     10  C5  <0> d          -2.065  -3.837   0.746  0.00  0.00     0.036 C 
BRANCH  10  11
ATOM     11  C4  <0> d          -0.726  -3.225   0.330  0.00  0.00     0.003 C 
BRANCH  11  12
ATOM     12  C3  <0> d           0.259  -3.311   1.498  0.00  0.00    -0.000 C 
BRANCH  12  13
ATOM     13  C2  <0> d           1.598  -2.699   1.082  0.00  0.00    -0.005 C 
ATOM     14  C1  <0> d           2.583  -2.785   2.250  0.00  0.00     0.005 C 
ENDBRANCH  12  13
ENDBRANCH  11  12
ENDBRANCH  10  11
ENDBRANCH   9  10
BRANCH   9  15
ATOM     15  O8  <0> d          -3.332  -2.379  -0.707  0.00  0.00    -0.392 OA
ATOM     16  H41 <0> d          -3.793  -1.916   0.006  0.00  0.00     0.210 HD
ENDBRANCH   9  15
ENDBRANCH   8   9
ENDBRANCH   1   7
BRANCH   6  17
ATOM     17  C21 <0> d          -3.735  -4.852  -3.869  0.00  0.00     0.013 C 
BRANCH  17  18
ATOM     18  C22 <0> d          -4.410  -4.697  -5.233  0.00  0.00     0.001 C 
BRANCH  18  19
ATOM     19  C23 <0> d          -3.797  -3.506  -5.973  0.00  0.00     0.000 C 
BRANCH  19  20
ATOM     20  C24 <0> d          -4.472  -3.351  -7.337  0.00  0.00     0.001 C 
BRANCH  20  21
ATOM     21  C25 <0> d          -3.860  -2.159  -8.076  0.00  0.00     0.010 C 
BRANCH  21  22
ATOM     22  C26 <0> d          -4.535  -2.004  -9.441  0.00  0.00     0.113 C 
BRANCH  22  23
ATOM     23  C27 <0> d          -3.932  -0.830 -10.169  0.00  0.00     0.172 C 
ATOM     24  O28 <0> d          -3.045  -0.178  -9.645  0.00  0.00    -0.648 OA
ATOM     25  O29 <0> d          -4.332  -0.533 -11.281  0.00  0.00    -0.648 OA
ENDBRANCH  22  23
ENDBRANCH  21  22
ENDBRANCH  20  21
ENDBRANCH  19  20
ENDBRANCH  18  19
ENDBRANCH  17  18
ENDBRANCH   6  17
BRANCH   2  26
ATOM     26  O15 <0> d          -2.601  -7.971  -0.522  0.00  0.00    -0.394 OA
ATOM     27  H44 <0> d          -2.480  -8.914  -0.346  0.00  0.00     0.210 HD
ENDBRANCH   2  26
TORSDOF 15
