REMARK  2 active torsions:
REMARK  status: ('A' for Active; 'I' for Inactive)
REMARK    1  A    between atoms: C13_11  and  O15_12 
REMARK    2  A    between atoms: C24_20  and  C25_21 
ROOT
ATOM      1  C1  <0> d           0.120   1.596   0.084  0.00  0.00     0.021 C 
ATOM      2  C2  <0> d           0.165   0.067   0.059  0.00  0.00    -0.012 C 
ATOM      3  C3  <0> d          -1.237  -0.475   0.213  0.00  0.00     0.015 C 
ATOM      4  C4  <0> d          -1.835   0.192   1.464  0.00  0.00     0.007 C 
ATOM      5  C5  <0> d          -0.979  -0.045   2.705  0.00  0.00     0.003 C 
ATOM      6  C7  <0> d           0.487   0.356   2.486  0.00  0.00    -0.001 C 
ATOM      7  C9  <0> d           1.279  -0.033   3.740  0.00  0.00     0.033 C 
ATOM      8  C10 <0> d           0.655   0.619   4.939  0.00  0.00    -0.023 C 
ATOM      9  C11 <0> d          -0.602   0.950   4.992  0.00  0.00    -0.072 C 
ATOM     10  C12 <0> d          -1.122   1.597   6.264  0.00  0.00     0.066 C 
ATOM     11  C13 <0> d          -2.368   0.832   6.722  0.00  0.00     0.122 C 
ATOM     12  C16 <0> d          -3.389   0.794   5.583  0.00  0.00     0.033 C 
ATOM     13  C17 <0> d          -2.813   0.009   4.402  0.00  0.00     0.016 C 
ATOM     14  C18 <0> d          -1.556   0.724   3.881  0.00  0.00    -0.017 C 
ATOM     15  C19 <0> d          -1.974   2.100   3.358  0.00  0.00     0.020 C 
ATOM     16  C20 <0> d           0.987  -0.440   1.280  0.00  0.00     0.006 C 
ATOM     17  C22 <0> d           2.394  -0.098   0.769  0.00  0.00     0.033 C 
ATOM     18  C23 <0> d           2.283  -0.459  -0.713  0.00  0.00    -0.018 C 
ATOM     19  C24 <0> d           0.981  -0.382  -1.107  0.00  0.00    -0.042 C 
ENDROOT
BRANCH  19  20
ATOM     20  C25 <0> d           0.471  -0.683  -2.461  0.00  0.00    -0.012 A 
ATOM     21  C30 <0> d          -0.394  -1.758  -2.670  0.00  0.00     0.128 A 
ATOM     22  N29 <0> d          -0.853  -2.023  -3.875  0.00  0.00    -0.272 NA
ATOM     23  C28 <0> d          -0.511  -1.302  -4.925  0.00  0.00     0.116 A 
ATOM     24  C27 <0> d           0.345  -0.223  -4.802  0.00  0.00     0.020 A 
ATOM     25  C26 <0> d           0.851   0.102  -3.555  0.00  0.00     0.015 A 
ENDBRANCH  19  20
BRANCH  11  26
ATOM     26  O15 <0> d          -2.942   1.489   7.853  0.00  0.00    -0.395 OA
ATOM     27  H43 <0> d          -2.349   1.550   8.615  0.00  0.00     0.210 HD
ENDBRANCH  11  26
TORSDOF 2
