REMARK  5 active torsions:
REMARK  status: ('A' for Active; 'I' for Inactive)
REMARK    1  A    between atoms: O2_2  and  C3_3 
REMARK    2  A    between atoms: C7_7  and  C8_8 
REMARK    3  A    between atoms: C8_8  and  O9_9 
REMARK    4  A    between atoms: C14_14  and  C16_15 
REMARK    5  A    between atoms: C16_15  and  N17_16 
ROOT
ATOM      1  C8  ZIN AC000       1.423  -4.138   2.223  0.00  0.00     0.090 C 
ATOM      2  C10 ZIN AC000       2.737  -4.538   1.549  0.00  0.00     0.043 C 
ATOM      3  C11 ZIN AC000       2.893  -6.059   1.599  0.00  0.00     0.003 C 
ATOM      4  C12 ZIN AC000       2.906  -6.523   3.056  0.00  0.00     0.001 C 
ATOM      5  C13 ZIN AC000       1.592  -6.124   3.730  0.00  0.00     0.010 C 
ATOM      6  C14 ZIN AC000       1.436  -4.602   3.681  0.00  0.00     0.050 C 
ENDROOT
BRANCH   1   7
ATOM      7  C7  ZIN AC000       1.269  -2.640   2.175  0.00  0.00    -0.021 A 
ATOM      8  C6  ZIN AC000       1.766  -1.860   3.204  0.00  0.00     0.010 A 
ATOM      9  C5  ZIN AC000       1.626  -0.486   3.162  0.00  0.00     0.003 A 
ATOM     10  C4  ZIN AC000       0.990   0.113   2.091  0.00  0.00     0.037 A 
ATOM     11  C3  ZIN AC000       0.490  -0.666   1.058  0.00  0.00     0.068 A 
ATOM     12  C21 ZIN AC000       0.627  -2.046   1.105  0.00  0.00     0.047 A 
BRANCH  11  13
ATOM     13  O2  ZIN AC000      -0.136  -0.080   0.005  0.00  0.00    -0.356 OA
ATOM     14  C1  ZIN AC000      -0.240   1.345   0.023  0.00  0.00     0.210 C 
ENDBRANCH  11  13
ENDBRANCH   1   7
BRANCH   1  15
ATOM     15  O9  ZIN AC000       0.330  -4.752   1.538  0.00  0.00    -0.385 OA
ATOM     16  H28 ZIN AC000       0.260  -4.502   0.606  0.00  0.00     0.211 HD
ENDBRANCH   1  15
BRANCH   6  17
ATOM     17  C16 ZIN AC000       0.122  -4.203   4.355  0.00  0.00     0.242 C 
BRANCH  17  18
ATOM     18  N17 ZIN AC000       0.183  -4.536   5.785  0.00  0.00    -0.078 N 
ATOM     19  H18 ZIN AC000       0.427  -5.510   5.893  0.00  0.00     0.279 HD
ATOM     20  C19 ZIN AC000       1.200  -3.702   6.439  0.00  0.00     0.269 C 
ATOM     21  C20 ZIN AC000      -1.126  -4.287   6.402  0.00  0.00     0.269 C 
ENDBRANCH  17  18
ENDBRANCH   6  17
TORSDOF 5
