REMARK  3 active torsions:
REMARK  status: ('A' for Active; 'I' for Inactive)
REMARK    1  A    between atoms: C2_2  and  N4_3 
REMARK    2  A    between atoms: C2_2  and  C8_7 
REMARK    3  A    between atoms: C8_7  and  C9_8 
ROOT
ATOM      1  C8  <0> d           0.718  -0.497  -1.257  0.00  0.00     0.070 C 
ENDROOT
BRANCH   1   2
ATOM      2  C2  <0> d           0.002  -0.004   0.002  0.00  0.00     0.183 C 
ATOM      3  C1  <0> d          -0.019   1.526   0.010  0.00  0.00     0.040 C 
BRANCH   2   4
ATOM      4  N4  <0> d          -1.376  -0.512   0.012  0.00  0.00    -0.075 N 
ATOM      5  H5  <0> d          -1.864  -0.178  -0.805  0.00  0.00     0.274 HD
ATOM      6  H6  <0> d          -1.362  -1.521   0.007  0.00  0.00     0.274 HD
ATOM      7  H7  <0> d          -1.848  -0.187   0.843  0.00  0.00     0.274 HD
ENDBRANCH   2   4
ENDBRANCH   1   2
BRANCH   1   8
ATOM      8  C9  <0> d           0.847  -1.998  -1.206  0.00  0.00    -0.056 A 
ATOM      9  C14 <0> d          -0.148  -2.796  -1.739  0.00  0.00     0.007 A 
ATOM     10  C13 <0> d          -0.027  -4.172  -1.696  0.00  0.00     0.001 A 
ATOM     11  C12 <0> d           1.084  -4.751  -1.112  0.00  0.00     0.000 A 
ATOM     12  C11 <0> d           2.076  -3.953  -0.574  0.00  0.00     0.001 A 
ATOM     13  C10 <0> d           1.958  -2.577  -0.621  0.00  0.00     0.007 A 
ENDBRANCH   1   8
TORSDOF 3
