REMARK  10 active torsions:
REMARK  status: ('A' for Active; 'I' for Inactive)
REMARK    1  A    between atoms: C2_2  and  O3_3 
REMARK    2  A    between atoms: O3_3  and  C4_4 
REMARK    3  A    between atoms: C10_10  and  C11_11 
REMARK    4  A    between atoms: C11_11  and  O13_13 
REMARK    5  A    between atoms: O13_13  and  C14_14 
REMARK    6  A    between atoms: C14_14  and  C15_15 
REMARK    7  A    between atoms: N23_23  and  C24_24 
REMARK    8  A    between atoms: C24_24  and  C25_25 
REMARK    9  A    between atoms: C28_28  and  C29_29 
REMARK   10  A    between atoms: C34_34  and  C35_35 
ROOT
ATOM      1  C4  ZIN AC000       2.103  -2.406  -1.774  0.00  0.00     0.249 A 
ATOM      2  N5  ZIN AC000       1.269  -3.412  -1.738  0.00  0.00    -0.206 NA
ATOM      3  C6  ZIN AC000       1.503  -4.234  -2.796  0.00  0.00     0.089 A 
ATOM      4  C7  ZIN AC000       0.920  -5.425  -3.232  0.00  0.00     0.034 A 
ATOM      5  C8  ZIN AC000       1.385  -6.047  -4.372  0.00  0.00     0.003 A 
ATOM      6  C9  ZIN AC000       2.429  -5.504  -5.096  0.00  0.00     0.020 A 
ATOM      7  C10 ZIN AC000       3.029  -4.314  -4.681  0.00  0.00     0.068 A 
ATOM      8  C22 ZIN AC000       2.565  -3.674  -3.524  0.00  0.00     0.083 A 
ATOM      9  N23 ZIN AC000       2.920  -2.519  -2.861  0.00  0.00    -0.304 N 
ENDROOT
BRANCH   9  10
ATOM     10  C24 ZIN AC000       3.981  -1.587  -3.251  0.00  0.00     0.171 C 
BRANCH  10  11
ATOM     11  C25 ZIN AC000       3.372  -0.385  -3.925  0.00  0.00    -0.040 A 
ATOM     12  C42 ZIN AC000       3.731   0.888  -3.520  0.00  0.00     0.010 A 
ATOM     13  C41 ZIN AC000       3.179   1.992  -4.136  0.00  0.00     0.013 A 
ATOM     14  C28 ZIN AC000       2.251   1.823  -5.163  0.00  0.00    -0.025 A 
ATOM     15  C27 ZIN AC000       1.889   0.538  -5.564  0.00  0.00     0.013 A 
ATOM     16  C26 ZIN AC000       2.451  -0.559  -4.943  0.00  0.00     0.010 A 
BRANCH  14  17
ATOM     17  C29 ZIN AC000       1.651   3.005  -5.825  0.00  0.00    -0.012 A 
ATOM     18  C34 ZIN AC000       1.092   4.040  -5.055  0.00  0.00     0.023 A 
ATOM     19  C33 ZIN AC000       0.535   5.149  -5.691  0.00  0.00     0.016 A 
ATOM     20  C32 ZIN AC000       0.525   5.220  -7.069  0.00  0.00     0.001 A 
ATOM     21  C31 ZIN AC000       1.071   4.198  -7.827  0.00  0.00     0.001 A 
ATOM     22  C30 ZIN AC000       1.631   3.095  -7.214  0.00  0.00     0.013 A 
BRANCH  18  23
ATOM     23  C35 ZIN AC000       1.105   3.959  -3.580  0.00  0.00     0.165 A 
ATOM     24  N40 ZIN AC000       0.616   4.879  -2.725  0.00  0.00    -0.237 N 
ATOM     25  O39 ZIN AC000       0.780   4.508  -1.582  0.00  0.00    -0.178 OA
ATOM     26  H64 ZIN AC000       0.190   5.710  -2.985  0.00  0.00     0.197 HD
ATOM     27  C37 ZIN AC000       1.400   3.317  -1.573  0.00  0.00     0.410 A 
ATOM     28  N36 ZIN AC000       1.606   2.969  -2.851  0.00  0.00    -0.166 NA
ATOM     29  O38 ZIN AC000       1.716   2.673  -0.588  0.00  0.00    -0.234 OA
ENDBRANCH  18  23
ENDBRANCH  14  17
ENDBRANCH  10  11
ENDBRANCH   9  10
BRANCH   1  30
ATOM     30  O3  ZIN AC000       2.146  -1.399  -0.872  0.00  0.00    -0.321 OA
BRANCH  30  31
ATOM     31  C2  ZIN AC000       1.207  -1.452   0.204  0.00  0.00     0.174 C 
ATOM     32  C1  ZIN AC000       1.406  -0.239   1.115  0.00  0.00     0.034 C 
ENDBRANCH  30  31
ENDBRANCH   1  30
BRANCH   7  33
ATOM     33  C11 ZIN AC000       4.142  -3.734  -5.454  0.00  0.00     0.296 C 
ATOM     34  O12 ZIN AC000       4.265  -2.528  -5.531  0.00  0.00    -0.259 OA
BRANCH  33  35
ATOM     35  O13 ZIN AC000       5.024  -4.543  -6.075  0.00  0.00    -0.311 OA
BRANCH  35  36
ATOM     36  C14 ZIN AC000       6.095  -3.903  -6.818  0.00  0.00     0.247 C 
BRANCH  36  37
ATOM     37  C15 ZIN AC000       6.975  -4.957  -7.439  0.00  0.00     0.112 A 
ATOM     38  O21 ZIN AC000       7.741  -5.850  -6.767  0.00  0.00    -0.255 OA
ATOM     39  C19 ZIN AC000       8.371  -6.617  -7.671  0.00  0.00     0.416 A 
ATOM     40  O18 ZIN AC000       8.003  -6.197  -8.892  0.00  0.00    -0.257 OA
ATOM     41  O20 ZIN AC000       9.140  -7.527  -7.427  0.00  0.00    -0.229 OA
ATOM     42  C16 ZIN AC000       7.137  -5.167  -8.736  0.00  0.00     0.087 A 
ATOM     43  C17 ZIN AC000       6.474  -4.393  -9.846  0.00  0.00     0.079 C 
ENDBRANCH  36  37
ENDBRANCH  35  36
ENDBRANCH  33  35
ENDBRANCH   7  33
TORSDOF 10
