REMARK  2 active torsions:
REMARK  status: ('A' for Active; 'I' for Inactive)
REMARK    1  A    between atoms: C3_3  and  N4_4 
REMARK    2  A    between atoms: N4_4  and  C5_5 
ROOT
ATOM      1 Cl1  ZIN AC000      -2.173   2.894   2.687  0.00  0.00    -0.082 Cl
ATOM      2  C2  ZIN AC000      -1.014   3.040   1.403  0.00  0.00     0.063 A 
ATOM      3  C3  ZIN AC000      -1.249   2.408   0.219  0.00  0.00     0.102 A 
ATOM      4  C10 ZIN AC000      -0.306   2.521  -0.841  0.00  0.00     0.125 A 
ATOM      5  N11 ZIN AC000      -0.307   2.011  -2.061  0.00  0.00    -0.189 NA
ATOM      6  S12 ZIN AC000       0.982   2.457  -2.809  0.00  0.00     0.117 SA
ATOM      7  N13 ZIN AC000       1.659   3.315  -1.703  0.00  0.00    -0.191 NA
ATOM      8  C14 ZIN AC000       0.897   3.319  -0.621  0.00  0.00     0.098 A 
ATOM      9  C15 ZIN AC000       1.074   3.947   0.638  0.00  0.00     0.036 A 
ATOM     10  C16 ZIN AC000       0.134   3.805   1.605  0.00  0.00     0.029 A 
ENDROOT
BRANCH   3  11
ATOM     11  N4  ZIN AC000      -2.412   1.654   0.045  0.00  0.00    -0.186 N 
ATOM     12  H17 ZIN AC000      -3.238   2.089  -0.216  0.00  0.00     0.184 HD
BRANCH  11  13
ATOM     13  C5  ZIN AC000      -2.384   0.292   0.245  0.00  0.00     0.696 A 
ATOM     14  N9  ZIN AC000      -3.503  -0.492   0.170  0.00  0.00    -0.223 N 
ATOM     15  C8  ZIN AC000      -3.111  -1.887   0.431  0.00  0.00     0.160 A 
ATOM     16  H22 ZIN AC000      -4.401  -0.182  -0.027  0.00  0.00     0.177 HD
ATOM     17  C7  ZIN AC000      -1.592  -1.787   0.678  0.00  0.00     0.189 A 
ATOM     18  N6  ZIN AC000      -1.300  -0.355   0.524  0.00  0.00    -0.106 NA
ENDBRANCH  11  13
ENDBRANCH   3  11
TORSDOF 2
