REMARK  11 active torsions:
REMARK  status: ('A' for Active; 'I' for Inactive)
REMARK    1  A    between atoms: C3_3  and  C4_4 
REMARK    2  A    between atoms: C4_4  and  C5_5 
REMARK    3  A    between atoms: C5_5  and  C8_7 
REMARK    4  A    between atoms: C8_7  and  O10_8 
REMARK    5  A    between atoms: C8_7  and  C11_9 
REMARK    6  A    between atoms: C12_10  and  C13_11 
REMARK    7  A    between atoms: C15_12  and  O17_13 
REMARK    8  A    between atoms: C23_18  and  C24_19 
REMARK    9  A    between atoms: C24_19  and  C25_20 
REMARK   10  A    between atoms: C25_20  and  C26_21 
REMARK   11  A    between atoms: C26_21  and  C27_22 
ROOT
ATOM      1  C1  ZIN AC000      -0.018   1.468   0.010  0.00  0.00     0.112 C 
ATOM      2  C2  ZIN AC000       0.002  -0.004   0.002  0.00  0.00    -0.111 C 
ATOM      3  C3  ZIN AC000       0.018  -1.178  -0.004  0.00  0.00    -0.107 C 
ENDROOT
BRANCH   3   4
ATOM      4  C4  ZIN AC000       0.038  -2.650  -0.013  0.00  0.00     0.101 C 
BRANCH   4   5
ATOM      5  C5  ZIN AC000      -1.397  -3.179  -0.002  0.00  0.00     0.025 C 
ATOM      6  C7  ZIN AC000      -2.099  -2.777  -1.300  0.00  0.00     0.014 C 
BRANCH   5   7
ATOM      7  C8  ZIN AC000      -1.377  -4.705   0.116  0.00  0.00     0.145 C 
BRANCH   7   8
ATOM      8  O10 ZIN AC000      -0.674  -5.259  -0.998  0.00  0.00    -0.391 OA
ATOM      9  H41 ZIN AC000      -1.064  -5.044  -1.856  0.00  0.00     0.210 HD
ENDBRANCH   7   8
BRANCH   7  10
ATOM     10  C11 ZIN AC000      -2.791  -5.226   0.126  0.00  0.00     0.001 C 
ATOM     11  C12 ZIN AC000      -3.162  -6.133  -0.744  0.00  0.00    -0.021 C 
BRANCH  11  12
ATOM     12  C13 ZIN AC000      -4.575  -6.654  -0.733  0.00  0.00     0.041 C 
ATOM     13  C31 ZIN AC000      -4.577  -8.175  -0.516  0.00  0.00     0.004 C 
ATOM     14  C19 ZIN AC000      -5.617  -8.768  -1.490  0.00  0.00    -0.003 C 
ATOM     15  C30 ZIN AC000      -5.112  -8.503   0.909  0.00  0.00     0.039 C 
ATOM     16  C18 ZIN AC000      -6.222  -7.593  -2.273  0.00  0.00     0.037 C 
ATOM     17  C21 ZIN AC000      -6.710  -9.434  -0.640  0.00  0.00     0.039 C 
ATOM     18  C15 ZIN AC000      -5.238  -6.420  -2.104  0.00  0.00     0.126 C 
ATOM     19  C22 ZIN AC000      -6.109  -9.632   0.738  0.00  0.00    -0.083 C 
ATOM     20  C23 ZIN AC000      -6.391 -10.579   1.598  0.00  0.00    -0.024 C 
BRANCH  18  21
ATOM     21  O17 ZIN AC000      -5.938  -5.175  -2.111  0.00  0.00    -0.395 OA
ATOM     22  H44 ZIN AC000      -6.376  -4.975  -2.950  0.00  0.00     0.210 HD
ENDBRANCH  18  21
BRANCH  20  23
ATOM     23  C24 ZIN AC000      -7.418 -11.627   1.255  0.00  0.00     0.028 C 
BRANCH  23  24
ATOM     24  C25 ZIN AC000      -6.798 -13.018   1.407  0.00  0.00     0.014 C 
BRANCH  24  25
ATOM     25  C26 ZIN AC000      -7.841 -14.082   1.059  0.00  0.00     0.113 C 
BRANCH  25  26
ATOM     26  C27 ZIN AC000      -7.231 -15.451   1.209  0.00  0.00     0.172 C 
ATOM     27  O28 ZIN AC000      -6.070 -15.566   1.562  0.00  0.00    -0.648 OA
ATOM     28  O29 ZIN AC000      -7.899 -16.445   0.978  0.00  0.00    -0.648 OA
ENDBRANCH  25  26
ENDBRANCH  24  25
ENDBRANCH  23  24
ENDBRANCH  20  23
ENDBRANCH  11  12
ENDBRANCH   7  10
ENDBRANCH   5   7
ENDBRANCH   4   5
ENDBRANCH   3   4
TORSDOF 11
