REMARK  7 active torsions:
REMARK  status: ('A' for Active; 'I' for Inactive)
REMARK    1  A    between atoms: C2_2  and  C3_3 
REMARK    2  A    between atoms: C3_3  and  C5_5 
REMARK    3  A    between atoms: C5_5  and  C6_6 
REMARK    4  A    between atoms: C5_5  and  C14_13 
REMARK    5  A    between atoms: C5_5  and  C20_19 
REMARK    6  A    between atoms: C6_6  and  C7_7 
REMARK    7  A    between atoms: C7_7  and  N10_9 
ROOT
ATOM      1  C5  ZIN AC000       0.616  -2.100  -1.286  0.00  0.00     0.076 C 
ENDROOT
BRANCH   1   2
ATOM      2  C3  ZIN AC000       0.396  -0.680  -0.830  0.00  0.00     0.144 C 
ATOM      3  O4  ZIN AC000       0.097   0.172  -1.631  0.00  0.00    -0.296 OA
BRANCH   2   4
ATOM      4  C2  ZIN AC000       0.550  -0.325   0.627  0.00  0.00     0.075 C 
ATOM      5  C1  ZIN AC000       0.130   1.130   0.844  0.00  0.00     0.013 C 
ENDBRANCH   2   4
ENDBRANCH   1   2
BRANCH   1   6
ATOM      6  C6  ZIN AC000       1.594  -2.795  -0.338  0.00  0.00     0.060 C 
BRANCH   6   7
ATOM      7  C7  ZIN AC000       2.899  -1.998  -0.276  0.00  0.00     0.185 C 
ATOM      8  C9  ZIN AC000       3.704  -2.239  -1.555  0.00  0.00     0.040 C 
BRANCH   7   9
ATOM      9  N10 ZIN AC000       3.684  -2.433   0.886  0.00  0.00    -0.075 N 
ATOM     10  H11 ZIN AC000       3.907  -3.413   0.794  0.00  0.00     0.279 HD
ATOM     11  C12 ZIN AC000       4.927  -1.653   0.958  0.00  0.00     0.269 C 
ATOM     12  C13 ZIN AC000       2.902  -2.223   2.112  0.00  0.00     0.269 C 
ENDBRANCH   7   9
ENDBRANCH   6   7
ENDBRANCH   1   6
BRANCH   1  13
ATOM     13  C14 ZIN AC000      -0.698  -2.837  -1.283  0.00  0.00    -0.037 A 
ATOM     14  C19 ZIN AC000      -1.722  -2.429  -2.116  0.00  0.00     0.009 A 
ATOM     15  C18 ZIN AC000      -2.926  -3.109  -2.116  0.00  0.00     0.001 A 
ATOM     16  C17 ZIN AC000      -3.109  -4.191  -1.275  0.00  0.00     0.000 A 
ATOM     17  C16 ZIN AC000      -2.087  -4.596  -0.438  0.00  0.00     0.001 A 
ATOM     18  C15 ZIN AC000      -0.881  -3.919  -0.441  0.00  0.00     0.009 A 
ENDBRANCH   1  13
BRANCH   1  19
ATOM     19  C20 ZIN AC000       1.186  -2.096  -2.682  0.00  0.00    -0.037 A 
ATOM     20  C25 ZIN AC000       1.631  -0.914  -3.243  0.00  0.00     0.009 A 
ATOM     21  C24 ZIN AC000       2.158  -0.911  -4.521  0.00  0.00     0.001 A 
ATOM     22  C23 ZIN AC000       2.231  -2.089  -5.241  0.00  0.00     0.000 A 
ATOM     23  C22 ZIN AC000       1.781  -3.270  -4.681  0.00  0.00     0.001 A 
ATOM     24  C21 ZIN AC000       1.258  -3.273  -3.402  0.00  0.00     0.009 A 
ENDBRANCH   1  19
TORSDOF 7
