REMARK  6 active torsions:
REMARK  status: ('A' for Active; 'I' for Inactive)
REMARK    1  A    between atoms: O2_2  and  C3_3 
REMARK    2  A    between atoms: C3_3  and  C4_4 
REMARK    3  A    between atoms: C4_4  and  N6_5 
REMARK    4  A    between atoms: C4_4  and  C10_9 
REMARK       I    between atoms: N6_5  and  C7_6 
REMARK       I    between atoms: C10_9  and  N12_11 
REMARK    5  A    between atoms: N12_11  and  C13_12 
REMARK    6  A    between atoms: C13_12  and  C14_13 
ROOT
ATOM      1  C10 ZIN AC000      -0.285  -2.557   1.155  0.00  0.00     0.242 C 
ATOM      2  O11 ZIN AC000       0.746  -3.161   0.945  0.00  0.00    -0.271 OA
ATOM      3  N12 ZIN AC000      -0.653  -2.273   2.420  0.00  0.00    -0.355 N 
ATOM      4  H29 ZIN AC000      -1.478  -1.790   2.587  0.00  0.00     0.162 HD
ENDROOT
BRANCH   1   5
ATOM      5  C4  ZIN AC000      -1.154  -2.126   0.002  0.00  0.00     0.200 C 
BRANCH   5   6
ATOM      6  C3  ZIN AC000      -1.295  -0.603   0.011  0.00  0.00     0.202 C 
BRANCH   6   7
ATOM      7  O2  ZIN AC000       0.002  -0.004   0.002  0.00  0.00    -0.393 OA
ATOM      8  C1  ZIN AC000      -0.017   1.425   0.010  0.00  0.00     0.201 C 
ENDBRANCH   6   7
ENDBRANCH   5   6
BRANCH   5   9
ATOM      9  N6  ZIN AC000      -0.539  -2.552  -1.258  0.00  0.00    -0.346 N 
ATOM     10  C7  ZIN AC000      -1.306  -2.745  -2.350  0.00  0.00     0.214 C 
ATOM     11  C8  ZIN AC000      -0.674  -3.183  -3.646  0.00  0.00     0.117 C 
ATOM     12  O9  ZIN AC000      -2.504  -2.567  -2.289  0.00  0.00    -0.274 OA
ATOM     13  H25 ZIN AC000       0.419  -2.694  -1.307  0.00  0.00     0.163 HD
ENDBRANCH   5   9
ENDBRANCH   1   5
BRANCH   3  14
ATOM     14  C13 ZIN AC000       0.191  -2.692   3.541  0.00  0.00     0.161 C 
BRANCH  14  15
ATOM     15  C14 ZIN AC000      -0.441  -2.254   4.837  0.00  0.00    -0.041 A 
ATOM     16  C19 ZIN AC000      -1.325  -3.090   5.492  0.00  0.00     0.009 A 
ATOM     17  C18 ZIN AC000      -1.902  -2.691   6.683  0.00  0.00     0.001 A 
ATOM     18  C17 ZIN AC000      -1.601  -1.451   7.215  0.00  0.00     0.000 A 
ATOM     19  C16 ZIN AC000      -0.720  -0.612   6.557  0.00  0.00     0.001 A 
ATOM     20  C15 ZIN AC000      -0.140  -1.014   5.368  0.00  0.00     0.009 A 
ENDBRANCH  14  15
ENDBRANCH   3  14
TORSDOF 6
