REMARK  5 active torsions:
REMARK  status: ('A' for Active; 'I' for Inactive)
REMARK    1  A    between atoms: C2_2  and  C3_3 
REMARK    2  A    between atoms: C3_3  and  C4_4 
REMARK    3  A    between atoms: C4_4  and  C5_5 
REMARK    4  A    between atoms: C5_5  and  C8_7 
REMARK    5  A    between atoms: C8_7  and  C9_8 
ROOT
ATOM      1  C4  ZIN AC000      -1.314  -1.748  -1.172  0.00  0.00     0.130 A 
ATOM      2  C11 ZIN AC000      -1.346  -0.946  -2.459  0.00  0.00     0.266 A 
ATOM      3  O12 ZIN AC000      -2.238  -0.158  -2.688  0.00  0.00    -0.270 OA
ATOM      4  N13 ZIN AC000      -0.343  -1.144  -3.342  0.00  0.00    -0.157 NA
ATOM      5  C14 ZIN AC000       0.649  -2.010  -3.105  0.00  0.00     0.351 A 
ATOM      6  O15 ZIN AC000       1.511  -2.124  -3.954  0.00  0.00    -0.244 OA
ATOM      7  N16 ZIN AC000       0.761  -2.758  -2.002  0.00  0.00    -0.276 N 
ATOM      8  C17 ZIN AC000      -0.146  -2.701  -1.004  0.00  0.00     0.244 A 
ATOM      9  O18 ZIN AC000      -0.031  -3.385  -0.010  0.00  0.00    -0.272 OA
ATOM     10  H34 ZIN AC000       1.517  -3.360  -1.917  0.00  0.00     0.173 HD
ENDROOT
BRANCH   1  11
ATOM     11  C3  ZIN AC000      -1.299  -0.765   0.000  0.00  0.00     0.056 C 
BRANCH  11  12
ATOM     12  C2  ZIN AC000      -0.001   0.001  -0.002  0.00  0.00    -0.035 C 
ATOM     13  C1  ZIN AC000      -0.013   1.311  -0.015  0.00  0.00     0.007 C 
ENDBRANCH  11  12
ENDBRANCH   1  11
BRANCH   1  14
ATOM     14  C5  ZIN AC000      -2.607  -2.561  -1.090  0.00  0.00     0.009 C 
ATOM     15  C7  ZIN AC000      -2.729  -3.451  -2.329  0.00  0.00     0.011 C 
BRANCH  14  16
ATOM     16  C8  ZIN AC000      -3.804  -1.611  -1.026  0.00  0.00     0.005 C 
BRANCH  16  17
ATOM     17  C9  ZIN AC000      -5.087  -2.419  -0.819  0.00  0.00    -0.004 C 
ATOM     18  C10 ZIN AC000      -6.284  -1.468  -0.754  0.00  0.00     0.005 C 
ENDBRANCH  16  17
ENDBRANCH  14  16
ENDBRANCH   1  14
TORSDOF 5
