REMARK  4 active torsions:
REMARK  status: ('A' for Active; 'I' for Inactive)
REMARK    1  A    between atoms: N2_2  and  C5_5 
REMARK    2  A    between atoms: C5_5  and  C6_6 
REMARK    3  A    between atoms: C6_6  and  C7_7 
REMARK    4  A    between atoms: C7_7  and  N8_8 
ROOT
ATOM      1  N8  <0> d          -2.770  -4.031  -0.119  0.00  0.00    -0.346 N 
ATOM      2  C9  <0> d          -2.729  -4.745  -1.322  0.00  0.00     0.041 A 
ATOM      3  C10 <0> d          -1.680  -4.479  -2.196  0.00  0.00     0.030 A 
ATOM      4  C11 <0> d          -1.563  -5.171  -3.383  0.00  0.00     0.002 A 
ATOM      5  C12 <0> d          -2.501  -6.139  -3.694  0.00  0.00     0.001 A 
ATOM      6  C13 <0> d          -3.547  -6.393  -2.836  0.00  0.00     0.009 A 
ATOM      7  C14 <0> d          -3.693  -5.690  -1.638  0.00  0.00    -0.031 A 
ATOM      8  C15 <0> d          -4.938  -6.035  -0.851  0.00  0.00     0.045 C 
ATOM      9  C16 <0> d          -5.098  -5.200   0.407  0.00  0.00     0.045 C 
ATOM     10  C17 <0> d          -3.953  -5.424   1.361  0.00  0.00    -0.031 A 
ATOM     11  C18 <0> d          -4.052  -6.239   2.465  0.00  0.00     0.009 A 
ATOM     12  C19 <0> d          -2.953  -6.362   3.303  0.00  0.00     0.001 A 
ATOM     13  C20 <0> d          -1.783  -5.676   3.032  0.00  0.00     0.002 A 
ATOM     14  C21 <0> d          -1.690  -4.864   1.913  0.00  0.00     0.030 A 
ATOM     15  C22 <0> d          -2.782  -4.760   1.076  0.00  0.00     0.041 A 
ENDROOT
BRANCH   1  16
ATOM     16  C7  <0> d          -2.794  -2.566  -0.111  0.00  0.00     0.131 C 
BRANCH  16  17
ATOM     17  C6  <0> d          -4.243  -2.079  -0.055  0.00  0.00     0.048 C 
BRANCH  17  18
ATOM     18  C5  <0> d          -4.270  -0.550  -0.104  0.00  0.00     0.235 C 
BRANCH  18  19
ATOM     19  N2  <0> d          -5.662  -0.083  -0.051  0.00  0.00    -0.079 N 
ATOM     20  C1  <0> d          -5.683   1.384   0.024  0.00  0.00     0.269 C 
ATOM     21  H3  <0> d          -6.115  -0.468   0.765  0.00  0.00     0.278 HD
ATOM     22  C4  <0> d          -6.373  -0.523  -1.258  0.00  0.00     0.269 C 
ENDBRANCH  18  19
ENDBRANCH  17  18
ENDBRANCH  16  17
ENDBRANCH   1  16
TORSDOF 4
