REMARK  1 active torsions:
REMARK  status: ('A' for Active; 'I' for Inactive)
REMARK    1  A    between atoms: C2_2  and  C3_3 
ROOT
ATOM      1  C3  ZIN AC000      -1.433  -0.534   0.013  0.00  0.00     0.045 A 
ATOM      2  C4  ZIN AC000      -2.186  -0.069  -1.235  0.00  0.00     0.026 C 
ATOM      3  C5  ZIN AC000      -1.443  -2.072   0.116  0.00  0.00     0.122 A 
ATOM      4  C6  ZIN AC000      -2.170  -2.336   1.417  0.00  0.00     0.225 A 
ATOM      5  O7  ZIN AC000      -2.399  -3.431   1.883  0.00  0.00    -0.273 OA
ATOM      6  N8  ZIN AC000      -2.519  -1.169   1.970  0.00  0.00    -0.297 N 
ATOM      7  C9  ZIN AC000      -2.155  -0.090   1.266  0.00  0.00     0.233 A 
ATOM      8  O10 ZIN AC000      -2.370   1.061   1.583  0.00  0.00    -0.272 OA
ATOM      9  H21 ZIN AC000      -2.997  -1.109   2.812  0.00  0.00     0.171 HD
ENDROOT
BRANCH   1  10
ATOM     10  C2  ZIN AC000       0.002  -0.004   0.002  0.00  0.00     0.015 C 
ATOM     11  C1  ZIN AC000      -0.019   1.526   0.010  0.00  0.00     0.006 C 
ENDBRANCH   1  10
TORSDOF 1
