REMARK  5 active torsions:
REMARK  status: ('A' for Active; 'I' for Inactive)
REMARK    1  A    between atoms: N2_2  and  S4_4 
REMARK    2  A    between atoms: S4_4  and  C7_7 
REMARK    3  A    between atoms: C19_19  and  C20_20 
REMARK    4  A    between atoms: C20_20  and  C21_21 
REMARK    5  A    between atoms: C21_21  and  N22_22 
ROOT
ATOM      1  C7  ZIN AC000      -1.376  -1.959  -0.317  0.00  0.00     0.080 A 
ATOM      2  C8  ZIN AC000      -2.347  -1.011  -0.591  0.00  0.00     0.027 A 
ATOM      3  C9  ZIN AC000      -3.062  -1.068  -1.768  0.00  0.00     0.021 A 
ATOM      4  C10 ZIN AC000      -2.814  -2.079  -2.696  0.00  0.00     0.017 A 
ATOM      5  S11 ZIN AC000      -3.743  -2.110  -4.187  0.00  0.00    -0.089 SA
ATOM      6  C12 ZIN AC000      -3.557  -3.746  -4.800  0.00  0.00     0.016 A 
ATOM      7  C13 ZIN AC000      -4.467  -4.219  -5.744  0.00  0.00     0.020 A 
ATOM      8  C14 ZIN AC000      -4.349  -5.497  -6.248  0.00  0.00     0.001 A 
ATOM      9  C15 ZIN AC000      -3.323  -6.324  -5.821  0.00  0.00     0.001 A 
ATOM     10  C16 ZIN AC000      -2.415  -5.872  -4.888  0.00  0.00     0.013 A 
ATOM     11  C17 ZIN AC000      -2.525  -4.580  -4.367  0.00  0.00    -0.008 A 
ATOM     12  C18 ZIN AC000      -1.540  -4.129  -3.365  0.00  0.00    -0.017 C 
ATOM     13  C19 ZIN AC000      -0.341  -4.728  -3.314  0.00  0.00    -0.012 C 
ATOM     14  C29 ZIN AC000      -1.837  -3.037  -2.418  0.00  0.00    -0.007 A 
ATOM     15  C30 ZIN AC000      -1.116  -2.963  -1.224  0.00  0.00     0.038 A 
ENDROOT
BRANCH  13  16
ATOM     16  C20 ZIN AC000       0.840  -4.001  -2.726  0.00  0.00     0.058 C 
BRANCH  16  17
ATOM     17  C21 ZIN AC000       2.023  -4.083  -3.694  0.00  0.00     0.276 C 
BRANCH  17  18
ATOM     18  N22 ZIN AC000       3.209  -3.481  -3.071  0.00  0.00     0.092 N 
ATOM     19  C28 ZIN AC000       4.349  -3.485  -3.997  0.00  0.00     0.302 C 
ATOM     20  C27 ZIN AC000       5.583  -2.923  -3.285  0.00  0.00     0.302 C 
ATOM     21  N25 ZIN AC000       5.295  -1.561  -2.814  0.00  0.00     0.087 N 
ATOM     22  C24 ZIN AC000       4.154  -1.558  -1.888  0.00  0.00     0.302 C 
ATOM     23  C26 ZIN AC000       6.481  -0.959  -2.191  0.00  0.00     0.310 C 
ATOM     24  C23 ZIN AC000       2.921  -2.119  -2.599  0.00  0.00     0.302 C 
ENDBRANCH  17  18
ENDBRANCH  16  17
ENDBRANCH  13  16
BRANCH   1  25
ATOM     25  S4  ZIN AC000      -0.466  -1.877   1.190  0.00  0.00     0.260 S 
ATOM     26  O5  ZIN AC000       0.167  -3.139   1.346  0.00  0.00    -0.200 OA
ATOM     27  O6  ZIN AC000      -1.345  -1.323   2.160  0.00  0.00    -0.200 OA
BRANCH  25  28
ATOM     28  N2  ZIN AC000       0.745  -0.769   0.971  0.00  0.00    -0.315 N 
ATOM     29  C1  ZIN AC000       0.464   0.662   1.111  0.00  0.00     0.162 C 
ATOM     30  C3  ZIN AC000       2.099  -1.221   0.638  0.00  0.00     0.162 C 
ENDBRANCH  25  28
ENDBRANCH   1  25
TORSDOF 5
