REMARK  7 active torsions:
REMARK  status: ('A' for Active; 'I' for Inactive)
REMARK    1  A    between atoms: N1_1  and  C5_5 
REMARK    2  A    between atoms: C5_5  and  C6_6 
REMARK    3  A    between atoms: C6_6  and  C7_7 
REMARK    4  A    between atoms: C7_7  and  C8_8 
REMARK    5  A    between atoms: C8_8  and  C9_9 
REMARK    6  A    between atoms: C9_9  and  N11_10 
REMARK    7  A    between atoms: C9_9  and  C15_14 
ROOT
ATOM      1  C8  <0> d           0.065   0.958   4.954  0.00  0.00     0.044 C 
ENDROOT
BRANCH   1   2
ATOM      2  C7  <0> d          -0.675   1.465   3.715  0.00  0.00     0.004 C 
BRANCH   2   3
ATOM      3  C6  <0> d           0.041   0.972   2.456  0.00  0.00     0.027 C 
BRANCH   3   4
ATOM      4  C5  <0> d          -0.699   1.479   1.216  0.00  0.00     0.229 C 
BRANCH   4   5
ATOM      5  N1  <0> d          -0.012   1.005   0.008  0.00  0.00    -0.079 N 
ATOM      6  H2  <0> d           0.002  -0.004   0.002  0.00  0.00     0.274 HD
ATOM      7  H3  <0> d           0.935   1.354   0.000  0.00  0.00     0.274 HD
ATOM      8  H4  <0> d          -0.500   1.339  -0.810  0.00  0.00     0.274 HD
ENDBRANCH   4   5
ENDBRANCH   3   4
ENDBRANCH   2   3
ENDBRANCH   1   2
BRANCH   1   9
ATOM      9  C9  <0> d          -0.651   1.452   6.213  0.00  0.00     0.283 C 
BRANCH   9  10
ATOM     10  N11 <0> d          -0.567   2.917   6.282  0.00  0.00    -0.065 N 
ATOM     11  H12 <0> d          -1.039   3.242   7.112  0.00  0.00     0.275 HD
ATOM     12  H13 <0> d           0.402   3.197   6.314  0.00  0.00     0.275 HD
ATOM     13  H14 <0> d          -1.006   3.318   5.466  0.00  0.00     0.275 HD
ENDBRANCH   9  10
BRANCH   9  14
ATOM     14  C15 <0> d           0.004   0.853   7.431  0.00  0.00     0.204 C 
ATOM     15  O16 <0> d           0.927   1.435   7.975  0.00  0.00    -0.646 OA
ATOM     16  O17 <0> d          -0.389  -0.213   7.872  0.00  0.00    -0.646 OA
ENDBRANCH   9  14
ENDBRANCH   1   9
TORSDOF 7
