REMARK  2 active torsions:
REMARK  status: ('A' for Active; 'I' for Inactive)
REMARK    1  A    between atoms: C10_10  and  C11_11 
REMARK    2  A    between atoms: C11_11  and  C12_12 
ROOT
ATOM      1  C11 ZIN AC000       2.490   1.331  -0.021  0.00  0.00     0.086 C 
ENDROOT
BRANCH   1   2
ATOM      2  C10 ZIN AC000       1.174   2.066   0.002  0.00  0.00     0.008 A 
ATOM      3  C2  ZIN AC000      -0.016   1.355   0.009  0.00  0.00     0.137 A 
ATOM      4  O1  ZIN AC000       0.002  -0.004   0.002  0.00  0.00    -0.190 OA
ATOM      5  C3  ZIN AC000      -1.227   2.034   0.030  0.00  0.00     0.072 A 
ATOM      6 Cl4  ZIN AC000      -2.720   1.147   0.047  0.00  0.00    -0.081 Cl
ATOM      7  C5  ZIN AC000      -1.244   3.416   0.039  0.00  0.00     0.052 A 
ATOM      8  C6  ZIN AC000      -0.055   4.123   0.026  0.00  0.00     0.058 A 
ATOM      9 Cl7  ZIN AC000      -0.079   5.859   0.036  0.00  0.00    -0.082 Cl
ATOM     10  C8  ZIN AC000       1.154   3.448   0.005  0.00  0.00     0.065 A 
ATOM     11 Cl9  ZIN AC000       2.644   4.338  -0.011  0.00  0.00    -0.082 Cl
ENDBRANCH   1   2
BRANCH   1  12
ATOM     12  C12 ZIN AC000       2.952   1.084   1.392  0.00  0.00     0.008 A 
ATOM     13  C20 ZIN AC000       2.581  -0.075   2.049  0.00  0.00     0.065 A 
ATOM     14  C18 ZIN AC000       3.009  -0.305   3.345  0.00  0.00     0.058 A 
ATOM     15 Cl21 ZIN AC000       1.589  -1.249   1.242  0.00  0.00    -0.082 Cl
ATOM     16  C17 ZIN AC000       3.800   0.629   3.990  0.00  0.00     0.052 A 
ATOM     17 Cl19 ZIN AC000       2.547  -1.764   4.165  0.00  0.00    -0.082 Cl
ATOM     18  C15 ZIN AC000       4.169   1.792   3.339  0.00  0.00     0.072 A 
ATOM     19  C13 ZIN AC000       3.745   2.022   2.037  0.00  0.00     0.137 A 
ATOM     20 Cl16 ZIN AC000       5.161   2.964   4.149  0.00  0.00    -0.081 Cl
ATOM     21  O14 ZIN AC000       4.106   3.164   1.395  0.00  0.00    -0.190 OA
ENDBRANCH   1  12
TORSDOF 2
