REMARK  7 active torsions:
REMARK  status: ('A' for Active; 'I' for Inactive)
REMARK    1  A    between atoms: C2_2  and  C3_3 
REMARK    2  A    between atoms: C3_3  and  C4_4 
REMARK    3  A    between atoms: C4_4  and  C5_5 
REMARK    4  A    between atoms: N14_14  and  C15_15 
REMARK    5  A    between atoms: C15_15  and  C16_16 
REMARK    6  A    between atoms: C19_19  and  C20_20 
REMARK    7  A    between atoms: C25_25  and  C26_26 
ROOT
ATOM      1  C16 ZIN AC000       1.177   1.782   0.000  0.00  0.00    -0.040 A 
ATOM      2  C17 ZIN AC000      -0.013   1.076   0.008  0.00  0.00     0.010 A 
ATOM      3  C18 ZIN AC000      -1.218   1.748   0.017  0.00  0.00     0.013 A 
ATOM      4  C19 ZIN AC000      -1.235   3.142   0.029  0.00  0.00    -0.025 A 
ATOM      5  C31 ZIN AC000      -0.033   3.849   0.022  0.00  0.00     0.013 A 
ATOM      6  C32 ZIN AC000       1.166   3.166   0.007  0.00  0.00     0.010 A 
ENDROOT
BRANCH   1   7
ATOM      7  C15 ZIN AC000       2.489   1.042  -0.015  0.00  0.00     0.172 C 
BRANCH   7   8
ATOM      8  N14 ZIN AC000       2.902   0.809  -1.401  0.00  0.00    -0.299 N 
ATOM      9  C5  ZIN AC000       3.675   1.665  -2.139  0.00  0.00     0.105 A 
ATOM     10  N6  ZIN AC000       3.903   1.238  -3.334  0.00  0.00    -0.256 NA
ATOM     11  C7  ZIN AC000       3.228  -0.054  -3.469  0.00  0.00     0.136 A 
ATOM     12  C11 ZIN AC000       2.192  -0.030  -4.595  0.00  0.00     0.043 C 
ATOM     13  C8  ZIN AC000       4.229  -1.173  -3.788  0.00  0.00     0.043 C 
ATOM     14  C12 ZIN AC000       2.578  -0.285  -2.128  0.00  0.00     0.256 A 
ATOM     15  C10 ZIN AC000       2.599  -1.145  -5.583  0.00  0.00     0.003 C 
ATOM     16  C9  ZIN AC000       3.440  -2.124  -4.725  0.00  0.00     0.003 C 
ATOM     17  O13 ZIN AC000       1.912  -1.237  -1.780  0.00  0.00    -0.270 OA
BRANCH   9  18
ATOM     18  C4  ZIN AC000       4.204   2.973  -1.610  0.00  0.00     0.078 C 
BRANCH  18  19
ATOM     19  C3  ZIN AC000       5.024   3.670  -2.698  0.00  0.00     0.007 C 
BRANCH  19  20
ATOM     20  C2  ZIN AC000       5.561   4.997  -2.160  0.00  0.00    -0.004 C 
ATOM     21  C1  ZIN AC000       6.381   5.694  -3.248  0.00  0.00     0.005 C 
ENDBRANCH  19  20
ENDBRANCH  18  19
ENDBRANCH   9  18
ENDBRANCH   7   8
ENDBRANCH   1   7
BRANCH   4  22
ATOM     22  C20 ZIN AC000      -2.526   3.870   0.044  0.00  0.00    -0.012 A 
ATOM     23  C25 ZIN AC000      -3.531   3.545  -0.883  0.00  0.00     0.026 A 
ATOM     24  C24 ZIN AC000      -4.743   4.233  -0.853  0.00  0.00     0.016 A 
ATOM     25  C23 ZIN AC000      -4.945   5.235   0.074  0.00  0.00     0.001 A 
ATOM     26  C22 ZIN AC000      -3.952   5.559   0.982  0.00  0.00     0.001 A 
ATOM     27  C21 ZIN AC000      -2.748   4.883   0.972  0.00  0.00     0.013 A 
BRANCH  23  28
ATOM     28  C26 ZIN AC000      -3.307   2.475  -1.878  0.00  0.00     0.207 A 
ATOM     29  N30 ZIN AC000      -4.165   2.062  -2.813  0.00  0.00    -0.106 NA
ATOM     30  N29 ZIN AC000      -3.591   1.116  -3.475  0.00  0.00    -0.021 NA
ATOM     31  N28 ZIN AC000      -2.412   0.919  -2.998  0.00  0.00    -0.021 NA
ATOM     32  N27 ZIN AC000      -2.205   1.737  -2.023  0.00  0.00    -0.106 NA
ENDBRANCH  23  28
ENDBRANCH   4  22
TORSDOF 7
