REMARK  4 active torsions:
REMARK  status: ('A' for Active; 'I' for Inactive)
REMARK    1  A    between atoms: S2_2  and  C3_3 
REMARK    2  A    between atoms: N14_14  and  C15_15 
REMARK    3  A    between atoms: C15_15  and  C16_16 
REMARK    4  A    between atoms: C16_16  and  C17_17 
ROOT
ATOM      1  C3  <0> d           1.033  -0.217  -1.266  0.00  0.00     0.002 A 
ATOM      2  C4  <0> d           1.555   0.789  -2.068  0.00  0.00     0.020 A 
ATOM      3  C5  <0> d           2.261   0.461  -3.210  0.00  0.00     0.022 A 
ATOM      4  C6  <0> d           2.452  -0.869  -3.560  0.00  0.00     0.032 A 
ATOM      5  S7  <0> d           3.347  -1.254  -5.026  0.00  0.00    -0.086 SA
ATOM      6  C8  <0> d           2.906  -2.928  -5.347  0.00  0.00     0.032 A 
ATOM      7  C9  <0> d           3.127  -3.459  -6.611  0.00  0.00     0.021 A 
ATOM      8  C10 <0> d           2.786  -4.771  -6.883  0.00  0.00     0.002 A 
ATOM      9  C11 <0> d           2.223  -5.557  -5.896  0.00  0.00     0.002 A 
ATOM     10  C12 <0> d           2.001  -5.036  -4.636  0.00  0.00     0.031 A 
ATOM     11  C13 <0> d           2.341  -3.718  -4.350  0.00  0.00     0.052 A 
ATOM     12  N14 <0> d           2.110  -3.228  -3.067  0.00  0.00    -0.345 N 
ATOM     13  C25 <0> d           1.935  -1.881  -2.756  0.00  0.00     0.053 A 
ATOM     14  C26 <0> d           1.228  -1.548  -1.606  0.00  0.00     0.049 A 
ENDROOT
BRANCH  12  15
ATOM     15  C15 <0> d           2.046  -4.196  -1.969  0.00  0.00     0.131 C 
BRANCH  15  16
ATOM     16  C16 <0> d           0.609  -4.695  -1.812  0.00  0.00     0.056 C 
BRANCH  16  17
ATOM     17  C17 <0> d           0.533  -5.671  -0.636  0.00  0.00     0.224 C 
ATOM     18  N23 <0> d          -0.862  -6.078  -0.427  0.00  0.00     0.088 N 
ATOM     19  C22 <0> d          -0.985  -6.985   0.722  0.00  0.00     0.272 C 
ATOM     20  C24 <0> d          -1.734  -4.906  -0.268  0.00  0.00     0.310 C 
ATOM     21  C21 <0> d          -0.178  -8.258   0.456  0.00  0.00     0.030 C 
ATOM     22  C20 <0> d           1.291  -7.887   0.229  0.00  0.00     0.004 C 
ATOM     23  C19 <0> d           1.385  -6.904  -0.942  0.00  0.00     0.036 C 
ENDBRANCH  16  17
ENDBRANCH  15  16
ENDBRANCH  12  15
BRANCH   1  24
ATOM     24  S2  <0> d           0.130   0.197   0.189  0.00  0.00    -0.134 SA
ATOM     25  C1  <0> d           0.157   2.011   0.185  0.00  0.00     0.095 C 
ENDBRANCH   1  24
TORSDOF 4
