REMARK  7 active torsions:
REMARK  status: ('A' for Active; 'I' for Inactive)
REMARK    1  A    between atoms: C2_2  and  N3_3 
REMARK    2  A    between atoms: N3_3  and  C4_4 
REMARK       I    between atoms: N3_3  and  C11_11 
REMARK    3  A    between atoms: C4_4  and  C5_5 
REMARK    4  A    between atoms: C11_11  and  C13_13 
REMARK    5  A    between atoms: C13_13  and  C15_14 
REMARK    6  A    between atoms: C13_13  and  C17_16 
REMARK    7  A    between atoms: C15_14  and  O16_15 
ROOT
ATOM      1  N3  ZIN AC000      -1.737  -0.666   0.217  0.00  0.00    -0.348 N 
ATOM      2  C11 ZIN AC000      -2.148  -0.579   1.498  0.00  0.00     0.230 C 
ATOM      3  O12 ZIN AC000      -3.303  -0.817   1.782  0.00  0.00    -0.273 OA
ENDROOT
BRANCH   2   4
ATOM      4  C13 ZIN AC000      -1.172  -0.188   2.577  0.00  0.00     0.134 C 
BRANCH   4   5
ATOM      5  C15 ZIN AC000      -0.792   1.285   2.412  0.00  0.00     0.182 C 
BRANCH   5   6
ATOM      6  O16 ZIN AC000       0.108   1.665   3.454  0.00  0.00    -0.400 OA
ATOM      7  H36 ZIN AC000       0.392   2.589   3.412  0.00  0.00     0.209 HD
ENDBRANCH   5   6
ENDBRANCH   4   5
BRANCH   4   8
ATOM      8  C17 ZIN AC000      -1.808  -0.394   3.928  0.00  0.00    -0.043 A 
ATOM      9  C22 ZIN AC000      -1.235  -1.265   4.836  0.00  0.00     0.008 A 
ATOM     10  C21 ZIN AC000      -1.815  -1.451   6.076  0.00  0.00     0.001 A 
ATOM     11  C20 ZIN AC000      -2.974  -0.773   6.406  0.00  0.00     0.000 A 
ATOM     12  C19 ZIN AC000      -3.550   0.095   5.496  0.00  0.00     0.001 A 
ATOM     13  C18 ZIN AC000      -2.967   0.284   4.257  0.00  0.00     0.008 A 
ENDBRANCH   4   8
ENDBRANCH   2   4
BRANCH   1  14
ATOM     14  C2  ZIN AC000      -0.331  -0.430  -0.119  0.00  0.00     0.121 C 
ATOM     15  C1  ZIN AC000      -0.171   0.985  -0.679  0.00  0.00     0.026 C 
ENDBRANCH   1  14
BRANCH   1  16
ATOM     16  C4  ZIN AC000      -2.697  -0.996  -0.839  0.00  0.00     0.164 C 
BRANCH  16  17
ATOM     17  C5  ZIN AC000      -2.750  -2.491  -1.020  0.00  0.00    -0.037 A 
ATOM     18  C10 ZIN AC000      -3.645  -3.262  -0.294  0.00  0.00     0.028 A 
ATOM     19  C9  ZIN AC000      -3.670  -4.630  -0.490  0.00  0.00     0.116 A 
ATOM     20  N8  ZIN AC000      -2.848  -5.203  -1.347  0.00  0.00    -0.273 NA
ATOM     21  C7  ZIN AC000      -1.980  -4.502  -2.050  0.00  0.00     0.116 A 
ATOM     22  C6  ZIN AC000      -1.902  -3.129  -1.912  0.00  0.00     0.028 A 
ENDBRANCH  16  17
ENDBRANCH   1  16
TORSDOF 7
