REMARK  4 active torsions:
REMARK  status: ('A' for Active; 'I' for Inactive)
REMARK    1  A    between atoms: C7_7  and  C8_8 
REMARK    2  A    between atoms: C8_8  and  C9_9 
REMARK    3  A    between atoms: C8_8  and  C15_15 
REMARK    4  A    between atoms: C8_8  and  N21_21 
ROOT
ATOM      1  C8  <0> d           2.482   1.705  -0.018  0.00  0.00     0.121 C 
ENDROOT
BRANCH   1   2
ATOM      2  C7  <0> d           1.170   2.443   0.031  0.00  0.00     0.002 A 
ATOM      3  C2  <0> d          -0.019   1.738   0.083  0.00  0.00     0.043 A 
ATOM      4 Cl1  <0> d           0.001   0.002   0.098  0.00  0.00    -0.084 Cl
ATOM      5  C3  <0> d          -1.224   2.416   0.128  0.00  0.00     0.024 A 
ATOM      6  C4  <0> d          -1.240   3.799   0.116  0.00  0.00     0.002 A 
ATOM      7  C5  <0> d          -0.051   4.503   0.058  0.00  0.00     0.001 A 
ATOM      8  C6  <0> d           1.153   3.825   0.013  0.00  0.00     0.012 A 
ENDBRANCH   1   2
BRANCH   1   9
ATOM      9  C9  <0> d           3.615   2.697  -0.083  0.00  0.00    -0.020 A 
ATOM     10  C14 <0> d           3.754   3.516  -1.188  0.00  0.00     0.010 A 
ATOM     11  C13 <0> d           4.790   4.429  -1.245  0.00  0.00     0.001 A 
ATOM     12  C12 <0> d           5.693   4.517  -0.201  0.00  0.00     0.000 A 
ATOM     13  C11 <0> d           5.556   3.695   0.901  0.00  0.00     0.001 A 
ATOM     14  C10 <0> d           4.518   2.785   0.961  0.00  0.00     0.010 A 
ENDBRANCH   1   9
BRANCH   1  15
ATOM     15  C15 <0> d           2.628   0.857   1.219  0.00  0.00    -0.020 A 
ATOM     16  C20 <0> d           2.500   1.431   2.470  0.00  0.00     0.010 A 
ATOM     17  C19 <0> d           2.629   0.651   3.604  0.00  0.00     0.001 A 
ATOM     18  C18 <0> d           2.895  -0.700   3.488  0.00  0.00     0.000 A 
ATOM     19  C17 <0> d           3.029  -1.273   2.237  0.00  0.00     0.001 A 
ATOM     20  C16 <0> d           2.895  -0.495   1.102  0.00  0.00     0.010 A 
ENDBRANCH   1  15
BRANCH   1  21
ATOM     21  N21 <0> d           2.517   0.847  -1.206  0.00  0.00    -0.329 N 
ATOM     22  C26 <0> d           3.530   0.038  -1.581  0.00  0.00     0.184 A 
ATOM     23  N24 <0> d           3.195  -0.567  -2.687  0.00  0.00    -0.361 N 
ATOM     24  C23 <0> d           1.971  -0.164  -3.058  0.00  0.00     0.106 A 
ATOM     25  H25 <0> d           3.746  -1.205  -3.167  0.00  0.00     0.166 HD
ATOM     26  C22 <0> d           1.529   0.721  -2.145  0.00  0.00     0.110 A 
ENDBRANCH   1  21
TORSDOF 4
