REMARK  12 active torsions:
REMARK  status: ('A' for Active; 'I' for Inactive)
REMARK    1  A    between atoms: C2_2  and  C4_4 
REMARK    2  A    between atoms: C2_2  and  C7_7 
REMARK    3  A    between atoms: C10_10  and  C11_11 
REMARK    4  A    between atoms: C11_11  and  O13_12 
REMARK    5  A    between atoms: C11_11  and  C14_13 
REMARK    6  A    between atoms: C14_13  and  C15_14 
REMARK    7  A    between atoms: C15_14  and  C16_15 
REMARK    8  A    between atoms: C16_15  and  N17_16 
REMARK    9  A    between atoms: C21_20  and  C22_21 
REMARK   10  A    between atoms: C22_21  and  O23_22 
REMARK   11  A    between atoms: C22_21  and  C24_23 
REMARK   12  A    between atoms: C22_21  and  C30_29 
ROOT
ATOM      1  N17 ZIN AC000       7.055  -3.391  -6.556  0.00  0.00    -0.071 N 
ATOM      2  H18 ZIN AC000       6.547  -4.113  -7.045  0.00  0.00     0.279 HD
ATOM      3  C19 ZIN AC000       8.392  -3.886  -6.207  0.00  0.00     0.235 C 
ATOM      4  C20 ZIN AC000       9.119  -4.338  -7.474  0.00  0.00     0.036 C 
ATOM      5  C21 ZIN AC000       9.247  -3.152  -8.434  0.00  0.00     0.033 C 
ATOM      6  C36 ZIN AC000       7.851  -2.596  -8.732  0.00  0.00     0.036 C 
ATOM      7  C37 ZIN AC000       7.172  -2.208  -7.417  0.00  0.00     0.235 C 
ENDROOT
BRANCH   1   8
ATOM      8  C16 ZIN AC000       6.332  -3.031  -5.328  0.00  0.00     0.235 C 
BRANCH   8   9
ATOM      9  C15 ZIN AC000       4.896  -2.637  -5.679  0.00  0.00     0.030 C 
BRANCH   9  10
ATOM     10  C14 ZIN AC000       4.143  -2.262  -4.401  0.00  0.00     0.038 C 
BRANCH  10  11
ATOM     11  C11 ZIN AC000       2.707  -1.868  -4.752  0.00  0.00     0.151 C 
BRANCH  11  12
ATOM     12  C10 ZIN AC000       2.002  -1.382  -3.512  0.00  0.00    -0.030 A 
ATOM     13  C9  ZIN AC000       1.864  -0.026  -3.282  0.00  0.00     0.010 A 
ATOM     14  C8  ZIN AC000       1.217   0.420  -2.145  0.00  0.00     0.009 A 
ATOM     15  C7  ZIN AC000       0.707  -0.490  -1.238  0.00  0.00    -0.040 A 
ATOM     16  C39 ZIN AC000       0.850  -1.846  -1.465  0.00  0.00     0.009 A 
ATOM     17  C38 ZIN AC000       1.494  -2.292  -2.604  0.00  0.00     0.010 A 
BRANCH  15  18
ATOM     18  C2  ZIN AC000       0.002  -0.004   0.002  0.00  0.00     0.068 C 
ATOM     19  C1  ZIN AC000      -0.019   1.526   0.010  0.00  0.00     0.032 C 
ATOM     20  C3  ZIN AC000       0.742  -0.511   1.242  0.00  0.00     0.032 C 
BRANCH  18  21
ATOM     21  C4  ZIN AC000      -1.412  -0.526   0.013  0.00  0.00     0.185 C 
ATOM     22  O5  ZIN AC000      -2.349   0.254   0.026  0.00  0.00    -0.647 OA
ATOM     23  O6  ZIN AC000      -1.618  -1.727   0.008  0.00  0.00    -0.647 OA
ENDBRANCH  18  21
ENDBRANCH  15  18
ENDBRANCH  11  12
BRANCH  11  24
ATOM     24  O13 ZIN AC000       2.016  -3.002  -5.279  0.00  0.00    -0.391 OA
ATOM     25  H48 ZIN AC000       1.966  -3.750  -4.668  0.00  0.00     0.210 HD
ENDBRANCH  11  24
ENDBRANCH  10  11
ENDBRANCH   9  10
ENDBRANCH   8   9
ENDBRANCH   1   8
BRANCH   5  26
ATOM     26  C22 ZIN AC000       9.903  -3.615  -9.736  0.00  0.00     0.116 C 
BRANCH  26  27
ATOM     27  O23 ZIN AC000       9.098  -4.630 -10.340  0.00  0.00    -0.380 OA
ATOM     28  H60 ZIN AC000       8.975  -5.414  -9.788  0.00  0.00     0.211 HD
ENDBRANCH  26  27
BRANCH  26  29
ATOM     29  C24 ZIN AC000      10.028  -2.446 -10.679  0.00  0.00    -0.019 A 
ATOM     30  C29 ZIN AC000       9.986  -2.652 -12.045  0.00  0.00     0.010 A 
ATOM     31  C28 ZIN AC000      10.097  -1.579 -12.910  0.00  0.00     0.001 A 
ATOM     32  C27 ZIN AC000      10.258  -0.301 -12.409  0.00  0.00     0.000 A 
ATOM     33  C26 ZIN AC000      10.304  -0.096 -11.043  0.00  0.00     0.001 A 
ATOM     34  C25 ZIN AC000      10.190  -1.168 -10.178  0.00  0.00     0.010 A 
ENDBRANCH  26  29
BRANCH  26  35
ATOM     35  C30 ZIN AC000      11.272  -4.170  -9.440  0.00  0.00    -0.019 A 
ATOM     36  C35 ZIN AC000      11.801  -5.167 -10.238  0.00  0.00     0.010 A 
ATOM     37  C34 ZIN AC000      13.059  -5.673  -9.968  0.00  0.00     0.001 A 
ATOM     38  C33 ZIN AC000      13.784  -5.188  -8.896  0.00  0.00     0.000 A 
ATOM     39  C32 ZIN AC000      13.252  -4.195  -8.095  0.00  0.00     0.001 A 
ATOM     40  C31 ZIN AC000      11.996  -3.686  -8.367  0.00  0.00     0.010 A 
ENDBRANCH  26  35
ENDBRANCH   5  26
TORSDOF 12
