REMARK  10 active torsions:
REMARK  status: ('A' for Active; 'I' for Inactive)
REMARK    1  A    between atoms: C2_2  and  O3_3 
REMARK    2  A    between atoms: O3_3  and  N4_4 
REMARK    3  A    between atoms: C5_5  and  C6_6 
REMARK    4  A    between atoms: C5_5  and  C36_34 
REMARK       I    between atoms: C6_6  and  N8_8 
REMARK    5  A    between atoms: N8_8  and  C9_9 
REMARK    6  A    between atoms: C14_13  and  C15_14 
REMARK    7  A    between atoms: C18_17  and  S19_18 
REMARK    8  A    between atoms: S19_18  and  C20_19 
REMARK    9  A    between atoms: C22_21  and  C23_22 
REMARK   10  A    between atoms: N40_38  and  P41_39 
ROOT
ATOM      1  C9  ZIN AC000       1.167  -6.352  -1.565  0.00  0.00     0.211 C 
ATOM      2  C11 ZIN AC000      -0.155  -6.981  -1.970  0.00  0.00     0.251 C 
ATOM      3  O12 ZIN AC000      -0.757  -7.089  -3.018  0.00  0.00    -0.271 OA
ATOM      4  N13 ZIN AC000      -0.394  -7.370  -0.706  0.00  0.00    -0.292 N 
ATOM      5  C14 ZIN AC000      -1.491  -7.782   0.084  0.00  0.00     0.129 C 
ATOM      6  C18 ZIN AC000      -1.497  -7.516   1.405  0.00  0.00     0.028 C 
ATOM      7  C32 ZIN AC000      -0.418  -6.879   2.218  0.00  0.00     0.124 C 
ATOM      8  S33 ZIN AC000       0.730  -5.904   1.200  0.00  0.00    -0.135 SA
ATOM      9  C34 ZIN AC000       0.981  -7.031  -0.212  0.00  0.00     0.187 C 
ENDROOT
BRANCH   1  10
ATOM     10  N8  ZIN AC000       1.127  -4.889  -1.499  0.00  0.00    -0.339 N 
ATOM     11  C6  ZIN AC000       1.721  -4.155  -2.460  0.00  0.00     0.277 C 
ATOM     12  O7  ZIN AC000       2.291  -4.706  -3.381  0.00  0.00    -0.266 OA
ATOM     13  H51 ZIN AC000       0.672  -4.449  -0.763  0.00  0.00     0.163 HD
BRANCH  11  14
ATOM     14  C5  ZIN AC000       1.681  -2.676  -2.393  0.00  0.00     0.199 C 
ATOM     15  N4  ZIN AC000       1.071  -2.085  -1.406  0.00  0.00    -0.124 NA
BRANCH  15  16
ATOM     16  O3  ZIN AC000       1.032  -0.671  -1.342  0.00  0.00    -0.256 OA
BRANCH  16  17
ATOM     17  C2  ZIN AC000       0.330  -0.159  -0.207  0.00  0.00     0.199 C 
ATOM     18  C1  ZIN AC000       0.352   1.370  -0.241  0.00  0.00     0.036 C 
ENDBRANCH  16  17
ENDBRANCH  15  16
BRANCH  14  19
ATOM     19  C36 ZIN AC000       2.334  -1.869  -3.449  0.00  0.00     0.197 A 
ATOM     20  N45 ZIN AC000       2.306  -0.560  -3.404  0.00  0.00    -0.198 NA
ATOM     21  C39 ZIN AC000       2.947   0.021  -4.431  0.00  0.00     0.220 A 
ATOM     22  S38 ZIN AC000       3.533  -1.343  -5.397  0.00  0.00     0.054 SA
ATOM     23  N40 ZIN AC000       3.098   1.307  -4.668  0.00  0.00    -0.139 NA
ATOM     24  N37 ZIN AC000       2.950  -2.453  -4.457  0.00  0.00    -0.185 NA
BRANCH  23  25
ATOM     25  P41 ZIN AC000       3.875   1.778  -5.928  0.00  0.00     0.401 P 
ATOM     26  O42 ZIN AC000       2.850   1.946  -7.159  0.00  0.00    -0.621 OA
ATOM     27  O43 ZIN AC000       4.585   3.190  -5.624  0.00  0.00    -0.621 OA
ATOM     28  O44 ZIN AC000       4.994   0.684  -6.309  0.00  0.00    -0.621 OA
ENDBRANCH  23  25
ENDBRANCH  14  19
ENDBRANCH  11  14
ENDBRANCH   1  10
BRANCH   5  29
ATOM     29  C15 ZIN AC000      -2.574  -8.467  -0.507  0.00  0.00     0.228 C 
ATOM     30  O16 ZIN AC000      -3.548  -8.960   0.257  0.00  0.00    -0.643 OA
ATOM     31  O17 ZIN AC000      -2.622  -8.621  -1.830  0.00  0.00    -0.643 OA
ENDBRANCH   5  29
BRANCH   6  32
ATOM     32  S19 ZIN AC000      -2.955  -7.977   2.280  0.00  0.00    -0.064 SA
BRANCH  32  33
ATOM     33  C20 ZIN AC000      -3.562  -6.384   2.724  0.00  0.00     0.139 A 
ATOM     34  S31 ZIN AC000      -2.868  -4.850   2.208  0.00  0.00    -0.072 SA
ATOM     35  C30 ZIN AC000      -4.105  -3.983   3.115  0.00  0.00     0.084 A 
ATOM     36  C22 ZIN AC000      -4.901  -4.890   3.713  0.00  0.00     0.075 A 
ATOM     37  N21 ZIN AC000      -4.587  -6.158   3.486  0.00  0.00    -0.233 NA
BRANCH  36  38
ATOM     38  C23 ZIN AC000      -6.048  -4.498   4.565  0.00  0.00    -0.004 A 
ATOM     39  C29 ZIN AC000      -6.856  -5.465   5.172  0.00  0.00     0.031 A 
ATOM     40  C28 ZIN AC000      -7.910  -5.056   5.962  0.00  0.00     0.090 A 
ATOM     41  N26 ZIN AC000      -8.165  -3.773   6.139  0.00  0.00    -0.371 N 
ATOM     42  C25 ZIN AC000      -7.431  -2.829   5.581  0.00  0.00     0.090 A 
ATOM     43  C27 ZIN AC000      -9.299  -3.385   6.982  0.00  0.00     0.154 C 
ATOM     44  C24 ZIN AC000      -6.355  -3.150   4.780  0.00  0.00     0.031 A 
ENDBRANCH  36  38
ENDBRANCH  32  33
ENDBRANCH   6  32
TORSDOF 10
