REMARK  4 active torsions:
REMARK  status: ('A' for Active; 'I' for Inactive)
REMARK    1  A    between atoms: C5_5  and  O6_6 
REMARK    2  A    between atoms: C13_12  and  O14_13 
REMARK    3  A    between atoms: N20_19  and  C21_20 
REMARK    4  A    between atoms: C21_20  and  C22_21 
ROOT
ATOM      1  O1  ZIN AC000       0.002  -0.125   0.641  0.00  0.00    -0.295 OA
ATOM      2  C2  ZIN AC000      -0.027   1.079   0.553  0.00  0.00     0.157 C 
ATOM      3  C3  ZIN AC000      -1.359   1.767   0.583  0.00  0.00     0.084 C 
ATOM      4  C4  ZIN AC000      -1.275   3.041   1.426  0.00  0.00     0.049 C 
ATOM      5  C5  ZIN AC000      -0.178   3.938   0.854  0.00  0.00     0.104 C 
ATOM      6  C7  ZIN AC000      -0.088   5.234   1.667  0.00  0.00     0.262 C 
ATOM      7  C9  ZIN AC000       0.178   5.026   3.149  0.00  0.00     0.078 C 
ATOM      8  C10 ZIN AC000       1.014   3.824   3.443  0.00  0.00    -0.046 A 
ATOM      9  C11 ZIN AC000       1.421   3.429   4.705  0.00  0.00     0.011 A 
ATOM     10  C12 ZIN AC000       2.153   2.264   4.869  0.00  0.00     0.040 A 
ATOM     11  C13 ZIN AC000       2.506   1.426   3.813  0.00  0.00     0.099 A 
ATOM     12  C15 ZIN AC000       2.112   1.822   2.530  0.00  0.00     0.110 A 
ATOM     13  C16 ZIN AC000       1.426   3.021   2.405  0.00  0.00    -0.001 A 
ATOM     14  C17 ZIN AC000       1.170   3.243   0.952  0.00  0.00     0.058 C 
ATOM     15  C18 ZIN AC000       2.253   4.143   0.364  0.00  0.00     0.051 C 
ATOM     16  C19 ZIN AC000       2.270   5.464   1.141  0.00  0.00     0.274 C 
ATOM     17  N20 ZIN AC000       0.960   6.089   1.095  0.00  0.00     0.096 N 
ATOM     18  C25 ZIN AC000       1.272   1.820   0.425  0.00  0.00     0.214 C 
ATOM     19  O27 ZIN AC000       2.244   1.233   1.322  0.00  0.00    -0.334 OA
ENDROOT
BRANCH  17  20
ATOM     20  C21 ZIN AC000       0.985   7.411   1.736  0.00  0.00     0.277 C 
BRANCH  20  21
ATOM     21  C22 ZIN AC000      -0.430   7.993   1.759  0.00  0.00     0.014 A 
ATOM     22  C24 ZIN AC000      -0.597   9.421   2.281  0.00  0.00     0.007 A 
ATOM     23  C23 ZIN AC000      -1.070   8.237   3.127  0.00  0.00     0.007 A 
ENDBRANCH  20  21
ENDBRANCH  17  20
BRANCH   5  24
ATOM     24  O6  ZIN AC000      -0.466   4.237  -0.514  0.00  0.00    -0.386 OA
ATOM     25  H32 ZIN AC000      -1.307   4.695  -0.648  0.00  0.00     0.210 HD
ENDBRANCH   5  24
BRANCH  11  26
ATOM     26  O14 ZIN AC000       3.202   0.276   4.020  0.00  0.00    -0.358 OA
ATOM     27  H37 ZIN AC000       2.644  -0.498   4.176  0.00  0.00     0.217 HD
ENDBRANCH  11  26
TORSDOF 4
