REMARK  4 active torsions:
REMARK  status: ('A' for Active; 'I' for Inactive)
REMARK    1  A    between atoms: C2_2  and  O4_4 
REMARK    2  A    between atoms: O4_4  and  C5_5 
REMARK    3  A    between atoms: C5_5  and  C8_7 
REMARK    4  A    between atoms: C8_7  and  N9_8 
ROOT
ATOM      1  C5  <0> d          -1.632  -2.174  -0.225  0.00  0.00     0.153 C 
ATOM      2  C7  <0> d          -1.931  -2.746  -1.612  0.00  0.00     0.042 C 
ENDROOT
BRANCH   1   3
ATOM      3  O4  <0> d          -1.792  -0.731  -0.251  0.00  0.00    -0.315 OA
BRANCH   3   4
ATOM      4  C2  <0> d          -0.708  -0.003  -0.561  0.00  0.00     0.255 C 
ATOM      5  C1  <0> d          -0.798   1.501  -0.608  0.00  0.00     0.126 C 
ATOM      6  O3  <0> d           0.341  -0.553  -0.802  0.00  0.00    -0.266 OA
ENDBRANCH   3   4
ENDBRANCH   1   3
BRANCH   1   7
ATOM      7  C8  <0> d          -2.600  -2.776   0.795  0.00  0.00     0.268 C 
BRANCH   7   8
ATOM      8  N9  <0> d          -2.215  -2.351   2.147  0.00  0.00    -0.076 N 
ATOM      9  C10 <0> d          -2.369  -0.895   2.265  0.00  0.00     0.271 C 
ATOM     10  C11 <0> d          -3.076  -3.016   3.134  0.00  0.00     0.271 C 
ATOM     11  C12 <0> d          -0.814  -2.717   2.395  0.00  0.00     0.271 C 
ENDBRANCH   7   8
ENDBRANCH   1   7
TORSDOF 4
