REMARK  6 active torsions:
REMARK  status: ('A' for Active; 'I' for Inactive)
REMARK    1  A    between atoms: C7_7  and  C9_8 
REMARK    2  A    between atoms: C9_8  and  C10_9 
REMARK    3  A    between atoms: C10_9  and  O11_10 
REMARK    4  A    between atoms: O11_10  and  C12_11 
REMARK    5  A    between atoms: C12_11  and  C14_13 
REMARK    6  A    between atoms: C12_11  and  C20_19 
ROOT
ATOM      1  C12 ZIN AC000      -3.310  -0.721   3.981  0.00  0.00     0.111 C 
ATOM      2  C13 ZIN AC000      -4.287   0.427   3.718  0.00  0.00     0.057 C 
ENDROOT
BRANCH   1   3
ATOM      3  O11 ZIN AC000      -2.938  -1.323   2.740  0.00  0.00    -0.371 OA
BRANCH   3   4
ATOM      4  C10 ZIN AC000      -2.418  -0.402   1.779  0.00  0.00     0.171 C 
BRANCH   4   5
ATOM      5  C9  ZIN AC000      -1.969  -1.165   0.531  0.00  0.00     0.059 C 
BRANCH   5   6
ATOM      6  C7  ZIN AC000      -1.413  -0.178  -0.497  0.00  0.00     0.190 C 
ATOM      7  N2  ZIN AC000      -2.490   0.712  -0.971  0.00  0.00    -0.071 N 
ATOM      8  C1  ZIN AC000      -2.130   2.110  -0.701  0.00  0.00     0.270 C 
ATOM      9  H3  ZIN AC000      -3.351   0.484  -0.498  0.00  0.00     0.279 HD
ATOM     10  C4  ZIN AC000      -2.654   0.512  -2.427  0.00  0.00     0.235 C 
ATOM     11  C5  ZIN AC000      -1.287  -0.033  -2.908  0.00  0.00     0.030 C 
ATOM     12  C6  ZIN AC000      -0.877  -0.944  -1.721  0.00  0.00     0.035 C 
ENDBRANCH   5   6
ENDBRANCH   4   5
ENDBRANCH   3   4
ENDBRANCH   1   3
BRANCH   1  13
ATOM     13  C14 ZIN AC000      -2.081  -0.186   4.669  0.00  0.00    -0.020 A 
ATOM     14  C19 ZIN AC000      -0.860  -0.807   4.483  0.00  0.00     0.010 A 
ATOM     15  C18 ZIN AC000       0.269  -0.313   5.111  0.00  0.00     0.001 A 
ATOM     16  C17 ZIN AC000       0.175   0.795   5.931  0.00  0.00     0.000 A 
ATOM     17  C16 ZIN AC000      -1.047   1.413   6.121  0.00  0.00     0.001 A 
ATOM     18  C15 ZIN AC000      -2.175   0.922   5.490  0.00  0.00     0.010 A 
ENDBRANCH   1  13
BRANCH   1  19
ATOM     19  C20 ZIN AC000      -3.970  -1.750   4.861  0.00  0.00    -0.019 A 
ATOM     20  C26 ZIN AC000      -4.105  -3.053   4.419  0.00  0.00     0.012 A 
ATOM     21  C25 ZIN AC000      -4.705  -4.000   5.228  0.00  0.00     0.024 A 
ATOM     22  C23 ZIN AC000      -5.182  -3.640   6.476  0.00  0.00     0.034 A 
ATOM     23  C22 ZIN AC000      -5.052  -2.335   6.916  0.00  0.00     0.024 A 
ATOM     24 Cl24 ZIN AC000      -5.942  -4.826   7.490  0.00  0.00    -0.084 Cl
ATOM     25  C21 ZIN AC000      -4.447  -1.391   6.108  0.00  0.00     0.012 A 
ENDBRANCH   1  19
TORSDOF 6
