REMARK  4 active torsions:
REMARK  status: ('A' for Active; 'I' for Inactive)
REMARK    1  A    between atoms: C2_2  and  C3_3 
REMARK       I    between atoms: C3_3  and  N5_5 
REMARK    2  A    between atoms: N5_5  and  C6_6 
REMARK    3  A    between atoms: C6_6  and  C7_7 
REMARK    4  A    between atoms: C10_9  and  C12_10 
ROOT
ATOM      1  C7  <0> d           1.603  -3.843   2.606  0.00  0.00     0.013 A 
ATOM      2  C9  <0> d           0.870  -4.566   3.738  0.00  0.00     0.016 A 
ATOM      3  C10 <0> d           2.400  -4.545   3.708  0.00  0.00     0.025 A 
ENDROOT
BRANCH   3   4
ATOM      4  C12 <0> d           3.107  -5.826   3.348  0.00  0.00    -0.044 A 
ATOM      5  C17 <0> d           4.475  -5.918   3.476  0.00  0.00    -0.016 A 
ATOM      6  C16 <0> d           5.143  -7.090   3.146  0.00  0.00     0.075 A 
ATOM      7  C18 <0> d           5.520  -4.935   3.967  0.00  0.00     0.068 C 
ATOM      8  C15 <0> d           4.405  -8.177   2.682  0.00  0.00     0.037 A 
ATOM      9  O20 <0> d           6.485  -6.963   3.336  0.00  0.00    -0.350 OA
ATOM     10  C14 <0> d           3.035  -8.082   2.553  0.00  0.00     0.003 A 
ATOM     11  C13 <0> d           2.382  -6.909   2.882  0.00  0.00     0.008 A 
ATOM     12  C19 <0> d           6.733  -5.859   4.225  0.00  0.00     0.180 C 
ENDBRANCH   3   4
BRANCH   1  13
ATOM     13  C6  <0> d           1.583  -2.313   2.615  0.00  0.00     0.128 C 
BRANCH  13  14
ATOM     14  N5  <0> d           0.874  -1.828   1.428  0.00  0.00    -0.361 N 
ATOM     15  C3  <0> d           0.731  -0.503   1.223  0.00  0.00     0.217 C 
ATOM     16  O4  <0> d           1.189   0.287   2.021  0.00  0.00    -0.274 OA
ATOM     17  H26 <0> d           0.508  -2.459   0.789  0.00  0.00     0.162 HD
BRANCH  15  18
ATOM     18  C2  <0> d           0.002  -0.004   0.002  0.00  0.00     0.098 C 
ATOM     19  C1  <0> d          -0.019   1.526   0.010  0.00  0.00     0.014 C 
ENDBRANCH  15  18
ENDBRANCH  13  14
ENDBRANCH   1  13
TORSDOF 4
