REMARK  5 active torsions:
REMARK  status: ('A' for Active; 'I' for Inactive)
REMARK    1  A    between atoms: C10_10  and  O11_11 
REMARK    2  A    between atoms: O11_11  and  C12_12 
REMARK    3  A    between atoms: C14_14  and  N15_15 
REMARK    4  A    between atoms: N15_15  and  C16_16 
REMARK    5  A    between atoms: C25_25  and  N26_26 
ROOT
ATOM      1  C1  ZIN AC000      -0.253   0.746   0.114  0.00  0.00     0.051 C 
ATOM      2  C2  ZIN AC000      -0.079  -0.740   0.298  0.00  0.00    -0.026 A 
ATOM      3  C3  ZIN AC000      -0.062  -1.571  -0.800  0.00  0.00     0.032 A 
ATOM      4  C4  ZIN AC000       0.099  -2.949  -0.629  0.00  0.00     0.045 A 
ATOM      5  C5  ZIN AC000       0.117  -3.816  -1.768  0.00  0.00     0.099 C 
ATOM      6  N6  ZIN AC000       0.132  -4.505  -2.672  0.00  0.00    -0.191 NA
ATOM      7  C7  ZIN AC000       0.244  -3.477   0.656  0.00  0.00     0.032 A 
ATOM      8  C8  ZIN AC000       0.226  -2.639   1.749  0.00  0.00    -0.026 A 
ATOM      9  C9  ZIN AC000       0.382  -3.207   3.136  0.00  0.00     0.051 C 
ATOM     10  C10 ZIN AC000       0.070  -1.269   1.574  0.00  0.00     0.089 A 
ENDROOT
BRANCH  10  11
ATOM     11  O11 ZIN AC000       0.054  -0.446   2.654  0.00  0.00    -0.289 OA
BRANCH  11  12
ATOM     12  C12 ZIN AC000       1.234   0.065   3.083  0.00  0.00     0.210 A 
ATOM     13  C27 ZIN AC000       1.276   0.913   4.183  0.00  0.00     0.110 A 
ATOM     14  C25 ZIN AC000       2.512   1.410   4.591  0.00  0.00     0.162 A 
ATOM     15 Br28 ZIN AC000      -0.305   1.369   5.114  0.00  0.00    -0.042 Br
ATOM     16  N24 ZIN AC000       3.603   1.067   3.911  0.00  0.00    -0.044 NA
ATOM     17  C14 ZIN AC000       3.524   0.261   2.864  0.00  0.00     0.731 A 
ATOM     18  N13 ZIN AC000       2.366  -0.234   2.452  0.00  0.00    -0.036 NA
BRANCH  14  19
ATOM     19  N26 ZIN AC000       2.603   2.256   5.686  0.00  0.00    -0.382 N 
ATOM     20  H42 ZIN AC000       3.466   2.601   5.962  0.00  0.00     0.157 HD
ATOM     21  H43 ZIN AC000       1.803   2.501   6.177  0.00  0.00     0.157 HD
ENDBRANCH  14  19
BRANCH  17  22
ATOM     22  N15 ZIN AC000       4.682  -0.075   2.181  0.00  0.00    -0.188 N 
ATOM     23  H37 ZIN AC000       4.630  -0.598   1.365  0.00  0.00     0.184 HD
BRANCH  22  24
ATOM     24  C16 ZIN AC000       5.921   0.340   2.665  0.00  0.00     0.049 A 
ATOM     25  C23 ZIN AC000       6.945   0.653   1.776  0.00  0.00     0.031 A 
ATOM     26  C22 ZIN AC000       8.169   1.067   2.251  0.00  0.00     0.025 A 
ATOM     27  C19 ZIN AC000       8.386   1.163   3.628  0.00  0.00     0.044 A 
ATOM     28  C18 ZIN AC000       7.357   0.842   4.519  0.00  0.00     0.025 A 
ATOM     29  C20 ZIN AC000       9.660   1.587   4.126  0.00  0.00     0.099 C 
ATOM     30  C17 ZIN AC000       6.134   0.434   4.037  0.00  0.00     0.031 A 
ATOM     31  N21 ZIN AC000      10.671   1.924   4.521  0.00  0.00    -0.191 NA
ENDBRANCH  22  24
ENDBRANCH  17  22
ENDBRANCH  11  12
ENDBRANCH  10  11
TORSDOF 5
