REMARK  3 active torsions:
REMARK  status: ('A' for Active; 'I' for Inactive)
REMARK    1  A    between atoms: N2_2  and  C5_5 
REMARK    2  A    between atoms: C5_5  and  C6_6 
REMARK    3  A    between atoms: C6_6  and  C7_7 
ROOT
ATOM      1  C7  <0> d          -3.492  -0.632  -1.275  0.00  0.00    -0.012 C 
ATOM      2  C8  <0> d          -4.519   0.211  -1.463  0.00  0.00    -0.018 C 
ATOM      3  C9  <0> d          -4.286   1.656  -1.688  0.00  0.00    -0.015 A 
ATOM      4  C10 <0> d          -3.512   2.076  -2.765  0.00  0.00     0.013 A 
ATOM      5  C11 <0> d          -3.333   3.425  -3.001  0.00  0.00     0.001 A 
ATOM      6  C12 <0> d          -3.924   4.364  -2.172  0.00  0.00     0.001 A 
ATOM      7  C13 <0> d          -4.679   3.966  -1.090  0.00  0.00     0.012 A 
ATOM      8  C14 <0> d          -4.854   2.604  -0.818  0.00  0.00    -0.025 A 
ATOM      9  C15 <0> d          -5.579   2.195   0.381  0.00  0.00     0.013 C 
ATOM     10  C16 <0> d          -6.424   1.193   0.505  0.00  0.00     0.013 C 
ATOM     11  C17 <0> d          -6.840   0.249  -0.528  0.00  0.00    -0.025 A 
ATOM     12  C18 <0> d          -8.180  -0.152  -0.601  0.00  0.00     0.012 A 
ATOM     13  C19 <0> d          -8.575  -1.078  -1.542  0.00  0.00     0.001 A 
ATOM     14  C20 <0> d          -7.654  -1.625  -2.421  0.00  0.00     0.001 A 
ATOM     15  C21 <0> d          -6.331  -1.231  -2.378  0.00  0.00     0.013 A 
ATOM     16  C22 <0> d          -5.917  -0.281  -1.456  0.00  0.00    -0.015 A 
ENDROOT
BRANCH   1  17
ATOM     17  C6  <0> d          -2.078  -0.110  -1.286  0.00  0.00     0.055 C 
BRANCH  17  18
ATOM     18  C5  <0> d          -1.376  -0.512   0.012  0.00  0.00     0.237 C 
BRANCH  18  19
ATOM     19  N2  <0> d           0.002  -0.004   0.002  0.00  0.00    -0.079 N 
ATOM     20  C1  <0> d          -0.018   1.465   0.010  0.00  0.00     0.269 C 
ATOM     21  H3  <0> d           0.474  -0.330  -0.828  0.00  0.00     0.278 HD
ATOM     22  C4  <0> d           0.713  -0.491   1.192  0.00  0.00     0.269 C 
ENDBRANCH  18  19
ENDBRANCH  17  18
ENDBRANCH   1  17
TORSDOF 3
