REMARK  5 active torsions:
REMARK  status: ('A' for Active; 'I' for Inactive)
REMARK    1  A    between atoms: N1_1  and  C2_2 
REMARK    2  A    between atoms: N6_6  and  C7_7 
REMARK    3  A    between atoms: C10_9  and  O12_10 
REMARK    4  A    between atoms: C13_11  and  C15_12 
REMARK    5  A    between atoms: C15_12  and  O16_13 
ROOT
ATOM      1  C2  ZIN AC000       0.002  -0.004   0.002  0.00  0.00     0.725 A 
ATOM      2  N3  ZIN AC000      -1.139  -0.678   0.004  0.00  0.00    -0.004 NA
ATOM      3  C4  ZIN AC000      -1.126  -2.014  -0.004  0.00  0.00     0.367 A 
ATOM      4  O5  ZIN AC000      -2.173  -2.638  -0.002  0.00  0.00    -0.244 OA
ATOM      5  N6  ZIN AC000       0.054  -2.668  -0.013  0.00  0.00    -0.264 N 
ATOM      6  C18 ZIN AC000       1.207  -1.963  -0.014  0.00  0.00     0.236 A 
ATOM      7  N19 ZIN AC000       1.174  -0.654  -0.013  0.00  0.00    -0.058 NA
ENDROOT
BRANCH   5   8
ATOM      8  C7  ZIN AC000       0.085  -4.133  -0.021  0.00  0.00     0.236 C 
ATOM      9  O17 ZIN AC000       0.933  -4.624   1.040  0.00  0.00    -0.356 OA
ATOM     10  C13 ZIN AC000       1.290  -5.969   0.649  0.00  0.00     0.176 C 
ATOM     11  C10 ZIN AC000       1.548  -5.885  -0.872  0.00  0.00     0.153 C 
ATOM     12  C9  ZIN AC000       0.738  -4.649  -1.323  0.00  0.00     0.088 C 
BRANCH  10  13
ATOM     13  C15 ZIN AC000       2.555  -6.422   1.380  0.00  0.00     0.198 C 
BRANCH  13  14
ATOM     14  O16 ZIN AC000       2.263  -6.605   2.767  0.00  0.00    -0.398 OA
ATOM     15  H27 ZIN AC000       3.022  -6.893   3.294  0.00  0.00     0.209 HD
ENDBRANCH  13  14
ENDBRANCH  10  13
BRANCH  11  16
ATOM     16  O12 ZIN AC000       1.074  -7.062  -1.529  0.00  0.00    -0.393 OA
ATOM     17  H24 ZIN AC000       1.159  -7.036  -2.492  0.00  0.00     0.210 HD
ENDBRANCH  11  16
ENDBRANCH   5   8
BRANCH   1  18
ATOM     18  N1  ZIN AC000      -0.017   1.368   0.010  0.00  0.00    -0.231 N 
ATOM     19  H20 ZIN AC000       0.817   1.865   0.004  0.00  0.00     0.174 HD
ATOM     20  H21 ZIN AC000      -0.863   1.842   0.016  0.00  0.00     0.174 HD
ENDBRANCH   1  18
TORSDOF 5
