REMARK  14 active torsions:
REMARK  status: ('A' for Active; 'I' for Inactive)
REMARK    1  A    between atoms: C2_2  and  C4_4 
REMARK    2  A    between atoms: C5_5  and  C6_6 
REMARK       I    between atoms: C6_6  and  N8_8 
REMARK    3  A    between atoms: N8_8  and  C9_9 
REMARK    4  A    between atoms: C15_15  and  C16_16 
REMARK    5  A    between atoms: C22_22  and  C23_23 
REMARK    6  A    between atoms: N30_30  and  C31_31 
REMARK    7  A    between atoms: C31_31  and  C32_32 
REMARK    8  A    between atoms: C32_32  and  C33_33 
REMARK    9  A    between atoms: C33_33  and  O35_34 
REMARK   10  A    between atoms: C33_33  and  C36_35 
REMARK   11  A    between atoms: C36_35  and  C37_36 
REMARK   12  A    between atoms: C37_36  and  O39_37 
REMARK   13  A    between atoms: C37_36  and  C40_38 
REMARK   14  A    between atoms: C40_38  and  C41_39 
ROOT
ATOM      1  C4  ZIN AC000      -1.471  -0.487  -0.319  0.00  0.00     0.032 A 
ATOM      2  C5  ZIN AC000      -2.103  -0.264   0.872  0.00  0.00     0.068 A 
ATOM      3  C15 ZIN AC000      -3.378  -0.997   0.808  0.00  0.00     0.020 A 
ATOM      4  C22 ZIN AC000      -3.401  -1.605  -0.432  0.00  0.00     0.057 A 
ATOM      5  N30 ZIN AC000      -2.244  -1.276  -1.090  0.00  0.00    -0.347 N 
ENDROOT
BRANCH   5   6
ATOM      6  C31 ZIN AC000      -1.893  -1.727  -2.439  0.00  0.00     0.132 C 
BRANCH   6   7
ATOM      7  C32 ZIN AC000      -2.315  -0.666  -3.457  0.00  0.00     0.052 C 
BRANCH   7   8
ATOM      8  C33 ZIN AC000      -2.056  -1.186  -4.873  0.00  0.00     0.122 C 
BRANCH   8   9
ATOM      9  O35 ZIN AC000      -2.898  -2.312  -5.128  0.00  0.00    -0.395 OA
ATOM     10  H70 ZIN AC000      -3.843  -2.118  -5.064  0.00  0.00     0.210 HD
ENDBRANCH   8   9
BRANCH   8  11
ATOM     11  C36 ZIN AC000      -2.360  -0.081  -5.886  0.00  0.00     0.064 C 
BRANCH  11  12
ATOM     12  C37 ZIN AC000      -1.983  -0.558  -7.290  0.00  0.00     0.130 C 
BRANCH  12  13
ATOM     13  O39 ZIN AC000      -2.822  -1.653  -7.662  0.00  0.00    -0.395 OA
ATOM     14  H73 ZIN AC000      -3.765  -1.439  -7.677  0.00  0.00     0.210 HD
ENDBRANCH  12  13
BRANCH  12  15
ATOM     15  C40 ZIN AC000      -2.170   0.589  -8.286  0.00  0.00     0.144 C 
BRANCH  15  16
ATOM     16  C41 ZIN AC000      -1.683   0.158  -9.645  0.00  0.00     0.175 C 
ATOM     17  O42 ZIN AC000      -1.229  -0.963  -9.803  0.00  0.00    -0.648 OA
ATOM     18  O43 ZIN AC000      -1.744   0.929 -10.587  0.00  0.00    -0.648 OA
ENDBRANCH  15  16
ENDBRANCH  12  15
ENDBRANCH  11  12
ENDBRANCH   8  11
ENDBRANCH   7   8
ENDBRANCH   6   7
ENDBRANCH   5   6
BRANCH   1  19
ATOM     19  C2  ZIN AC000      -0.125   0.067  -0.710  0.00  0.00     0.028 C 
ATOM     20  C1  ZIN AC000      -0.175   1.596  -0.681  0.00  0.00     0.016 C 
ATOM     21  C3  ZIN AC000       0.936  -0.428   0.275  0.00  0.00     0.016 C 
ENDBRANCH   1  19
BRANCH   4  22
ATOM     22  C23 ZIN AC000      -4.486  -2.456  -0.960  0.00  0.00    -0.008 A 
ATOM     23  C29 ZIN AC000      -4.205  -3.746  -1.418  0.00  0.00     0.017 A 
ATOM     24  C28 ZIN AC000      -5.223  -4.538  -1.906  0.00  0.00     0.043 A 
ATOM     25  C26 ZIN AC000      -6.521  -4.053  -1.952  0.00  0.00     0.116 A 
ATOM     26  C25 ZIN AC000      -6.804  -2.772  -1.504  0.00  0.00     0.043 A 
ATOM     27  F27 ZIN AC000      -7.513  -4.832  -2.435  0.00  0.00    -0.206 F 
ATOM     28  C24 ZIN AC000      -5.795  -1.973  -1.010  0.00  0.00     0.017 A 
ENDBRANCH   4  22
BRANCH   2  29
ATOM     29  C6  ZIN AC000      -1.608   0.548   1.995  0.00  0.00     0.259 C 
ATOM     30  O7  ZIN AC000      -1.873   1.734   2.050  0.00  0.00    -0.267 OA
ATOM     31  N8  ZIN AC000      -0.862  -0.022   2.961  0.00  0.00    -0.323 N 
ATOM     32  H51 ZIN AC000      -0.706  -0.980   2.953  0.00  0.00     0.169 HD
BRANCH  31  33
ATOM     33  C9  ZIN AC000      -0.311   0.767   3.977  0.00  0.00     0.035 A 
ATOM     34  C14 ZIN AC000      -1.014   1.860   4.467  0.00  0.00     0.029 A 
ATOM     35  C13 ZIN AC000      -0.470   2.634   5.473  0.00  0.00     0.002 A 
ATOM     36  C12 ZIN AC000       0.777   2.327   5.986  0.00  0.00     0.000 A 
ATOM     37  C11 ZIN AC000       1.482   1.243   5.496  0.00  0.00     0.002 A 
ATOM     38  C10 ZIN AC000       0.941   0.462   4.493  0.00  0.00     0.029 A 
ENDBRANCH  31  33
ENDBRANCH   2  29
BRANCH   3  39
ATOM     39  C16 ZIN AC000      -4.421  -1.068   1.857  0.00  0.00    -0.023 A 
ATOM     40  C21 ZIN AC000      -5.134   0.077   2.214  0.00  0.00     0.012 A 
ATOM     41  C20 ZIN AC000      -6.108   0.003   3.188  0.00  0.00     0.001 A 
ATOM     42  C19 ZIN AC000      -6.371  -1.200   3.818  0.00  0.00     0.000 A 
ATOM     43  C18 ZIN AC000      -5.664  -2.338   3.472  0.00  0.00     0.001 A 
ATOM     44  C17 ZIN AC000      -4.691  -2.279   2.495  0.00  0.00     0.012 A 
ENDBRANCH   3  39
TORSDOF 14
