REMARK  4 active torsions:
REMARK  status: ('A' for Active; 'I' for Inactive)
REMARK    1  A    between atoms: N1_1  and  C5_5 
REMARK    2  A    between atoms: C5_5  and  C7_6 
REMARK    3  A    between atoms: C5_5  and  C11_10 
REMARK    4  A    between atoms: C7_6  and  C8_7 
ROOT
ATOM      1  C5  <0> d          -0.699   1.479   1.216  0.00  0.00     0.293 C 
ENDROOT
BRANCH   1   2
ATOM      2  N1  <0> d          -0.012   1.005   0.008  0.00  0.00    -0.065 N 
ATOM      3  H2  <0> d           0.002  -0.004   0.002  0.00  0.00     0.275 HD
ATOM      4  H3  <0> d           0.935   1.354   0.000  0.00  0.00     0.275 HD
ATOM      5  H4  <0> d          -0.500   1.339  -0.810  0.00  0.00     0.275 HD
ENDBRANCH   1   2
BRANCH   1   6
ATOM      6  C7  <0> d           0.041   0.972   2.456  0.00  0.00     0.157 C 
BRANCH   6   7
ATOM      7  C8  <0> d          -0.045  -0.532   2.512  0.00  0.00     0.175 C 
ATOM      8  O9  <0> d          -0.642  -1.141   1.641  0.00  0.00    -0.648 OA
ATOM      9  O10 <0> d           0.484  -1.139   3.428  0.00  0.00    -0.648 OA
ENDBRANCH   6   7
ENDBRANCH   1   6
BRANCH   1  10
ATOM     10  C11 <0> d          -0.720   2.985   1.224  0.00  0.00     0.205 C 
ATOM     11  O12 <0> d          -1.399   3.581   2.043  0.00  0.00    -0.646 OA
ATOM     12  O13 <0> d          -0.057   3.608   0.413  0.00  0.00    -0.646 OA
ENDBRANCH   1  10
TORSDOF 4
