REMARK  3 active torsions:
REMARK  status: ('A' for Active; 'I' for Inactive)
REMARK       I    between atoms: N1_1  and  C2_2 
REMARK       I    between atoms: C2_2  and  N6_6 
REMARK       I    between atoms: N6_6  and  C7_7 
REMARK    1  A    between atoms: C7_7  and  C9_9 
REMARK    2  A    between atoms: C13_13  and  N14_14 
REMARK    3  A    between atoms: C16_16  and  N17_17 
ROOT
ATOM      1  C9  <0> d          -3.602  -0.795   0.362  0.00  0.00     0.172 A 
ATOM      2  N10 <0> d          -3.582  -2.125   0.462  0.00  0.00    -0.223 NA
ATOM      3  C11 <0> d          -4.699  -2.788   0.662  0.00  0.00     0.172 A 
ATOM      4 Cl12 <0> d          -4.668  -4.519   0.790  0.00  0.00    -0.058 Cl
ATOM      5  C13 <0> d          -5.915  -2.102   0.772  0.00  0.00     0.164 A 
ATOM      6  N15 <0> d          -5.945  -0.779   0.675  0.00  0.00    -0.209 NA
ATOM      7  C16 <0> d          -4.819  -0.104   0.478  0.00  0.00     0.158 A 
ENDROOT
BRANCH   1   8
ATOM      8  C7  <0> d          -2.350  -0.053   0.138  0.00  0.00     0.292 C 
ATOM      9  N6  <0> d          -1.171  -0.706   0.135  0.00  0.00    -0.155 N 
ATOM     10  C2  <0> d           0.005   0.000   0.047  0.00  0.00     0.672 C 
ATOM     11  H20 <0> d          -1.152  -1.674   0.194  0.00  0.00     0.187 HD
ATOM     12  N1  <0> d          -0.011   1.330   0.108  0.00  0.00    -0.235 N 
ATOM     13  N3  <0> d           1.159  -0.645  -0.099  0.00  0.00    -0.235 N 
ATOM     14  H18 <0> d           0.823   1.825   0.113  0.00  0.00     0.174 HD
ATOM     15  H19 <0> d          -0.857   1.803   0.144  0.00  0.00     0.174 HD
ATOM     16  H4  <0> d           1.171  -1.614  -0.143  0.00  0.00     0.174 HD
ATOM     17  H5  <0> d           1.989  -0.147  -0.161  0.00  0.00     0.174 HD
ATOM     18  O8  <0> d          -2.380   1.149  -0.045  0.00  0.00    -0.265 OA
ENDBRANCH   1   8
BRANCH   7  19
ATOM     19  N17 <0> d          -4.846   1.275   0.376  0.00  0.00    -0.382 N 
ATOM     20  H23 <0> d          -5.675   1.756   0.524  0.00  0.00     0.157 HD
ATOM     21  H24 <0> d          -4.036   1.761   0.157  0.00  0.00     0.157 HD
ENDBRANCH   7  19
BRANCH   5  22
ATOM     22  N14 <0> d          -7.088  -2.805   0.984  0.00  0.00    -0.381 N 
ATOM     23  H21 <0> d          -7.068  -3.772   1.056  0.00  0.00     0.157 HD
ATOM     24  H22 <0> d          -7.931  -2.331   1.061  0.00  0.00     0.157 HD
ENDBRANCH   5  22
TORSDOF 3
