REMARK  1 active torsions:
REMARK  status: ('A' for Active; 'I' for Inactive)
REMARK       I    between atoms: N1_1  and  C2_2 
REMARK    1  A    between atoms: C2_2  and  C4_4 
ROOT
ATOM      1  C4  ZIN AC000      -1.266  -0.759   0.010  0.00  0.00     0.068 A 
ATOM      2  C5  ZIN AC000      -2.487  -0.081   0.019  0.00  0.00     0.020 A 
ATOM      3  C6  ZIN AC000      -3.667  -0.792   0.026  0.00  0.00     0.001 A 
ATOM      4  C7  ZIN AC000      -3.649  -2.177   0.024  0.00  0.00     0.003 A 
ATOM      5  C8  ZIN AC000      -2.448  -2.860   0.015  0.00  0.00     0.041 A 
ATOM      6  C9  ZIN AC000      -1.251  -2.161   0.002  0.00  0.00     0.122 A 
ATOM      7  O10 ZIN AC000      -0.071  -2.830  -0.007  0.00  0.00    -0.191 OA
ENDROOT
BRANCH   1   8
ATOM      8  C2  ZIN AC000       0.002  -0.004   0.002  0.00  0.00     0.252 C 
ATOM      9  N1  ZIN AC000      -0.016   1.344   0.009  0.00  0.00    -0.366 N 
ATOM     10  H11 ZIN AC000       0.817   1.840   0.004  0.00  0.00     0.159 HD
ATOM     11  H12 ZIN AC000      -0.863   1.817   0.016  0.00  0.00     0.159 HD
ATOM     12  O3  ZIN AC000       1.063  -0.598  -0.011  0.00  0.00    -0.268 OA
ENDBRANCH   1   8
TORSDOF 1
