REMARK  9 active torsions:
REMARK  status: ('A' for Active; 'I' for Inactive)
REMARK    1  A    between atoms: C2_2  and  O3_3 
REMARK    2  A    between atoms: O3_3  and  C4_4 
REMARK    3  A    between atoms: C4_4  and  C6_6 
REMARK    4  A    between atoms: C8_8  and  O10_9 
REMARK    5  A    between atoms: O10_9  and  C11_10 
REMARK    6  A    between atoms: C11_10  and  C12_11 
REMARK    7  A    between atoms: C11_10  and  C14_13 
REMARK    8  A    between atoms: C16_15  and  N18_16 
REMARK       I    between atoms: N18_16  and  C19_17 
REMARK    9  A    between atoms: C22_20  and  N24_21 
ROOT
ATOM      1  C6  <0> d          -2.869  -2.425   0.016  0.00  0.00     0.018 C 
ATOM      2  C7  <0> d          -2.980  -3.737   0.016  0.00  0.00     0.020 C 
ATOM      3  C8  <0> d          -4.294  -4.463   0.015  0.00  0.00     0.170 C 
ATOM      4  C16 <0> d          -5.419  -3.517   0.441  0.00  0.00     0.147 C 
ATOM      5  C22 <0> d          -5.313  -2.231  -0.389  0.00  0.00     0.213 C 
ATOM      6  C28 <0> d          -4.041  -1.488   0.033  0.00  0.00     0.079 C 
ENDROOT
BRANCH   3   7
ATOM      7  O10 <0> d          -4.230  -5.559   0.930  0.00  0.00    -0.375 OA
BRANCH   7   8
ATOM      8  C11 <0> d          -3.775  -6.780   0.343  0.00  0.00     0.121 C 
BRANCH   8   9
ATOM      9  C12 <0> d          -3.048  -7.614   1.399  0.00  0.00     0.027 C 
ATOM     10  C13 <0> d          -1.780  -6.882   1.843  0.00  0.00     0.007 C 
ENDBRANCH   8   9
BRANCH   8  11
ATOM     11  C14 <0> d          -4.974  -7.566  -0.192  0.00  0.00     0.027 C 
ATOM     12  C15 <0> d          -5.628  -6.786  -1.334  0.00  0.00     0.007 C 
ENDBRANCH   8  11
ENDBRANCH   7   8
ENDBRANCH   3   7
BRANCH   4  13
ATOM     13  N18 <0> d          -6.716  -4.155   0.202  0.00  0.00    -0.352 N 
ATOM     14  C19 <0> d          -7.239  -4.982   1.128  0.00  0.00     0.214 C 
ATOM     15  C20 <0> d          -8.574  -5.639   0.883  0.00  0.00     0.117 C 
ATOM     16  O21 <0> d          -6.637  -5.199   2.159  0.00  0.00    -0.274 OA
ATOM     17  H46 <0> d          -7.197  -3.982  -0.622  0.00  0.00     0.163 HD
ENDBRANCH   4  13
BRANCH   1  18
ATOM     18  C4  <0> d          -1.519  -1.845   0.007  0.00  0.00     0.289 C 
ATOM     19  O5  <0> d          -0.545  -2.572  -0.007  0.00  0.00    -0.260 OA
BRANCH  18  20
ATOM     20  O3  <0> d          -1.360  -0.507   0.012  0.00  0.00    -0.318 OA
BRANCH  20  21
ATOM     21  C2  <0> d           0.002  -0.004   0.002  0.00  0.00     0.174 C 
ATOM     22  C1  <0> d          -0.019   1.526   0.010  0.00  0.00     0.034 C 
ENDBRANCH  20  21
ENDBRANCH  18  20
ENDBRANCH   1  18
BRANCH   5  23
ATOM     23  N24 <0> d          -6.487  -1.384  -0.139  0.00  0.00    -0.073 N 
ATOM     24  H25 <0> d          -6.529  -1.148   0.841  0.00  0.00     0.274 HD
ATOM     25  H26 <0> d          -6.415  -0.539  -0.686  0.00  0.00     0.274 HD
ATOM     26  H27 <0> d          -7.324  -1.884  -0.401  0.00  0.00     0.274 HD
ENDBRANCH   5  23
TORSDOF 9
