REMARK  10 active torsions:
REMARK  status: ('A' for Active; 'I' for Inactive)
REMARK    1  A    between atoms: C2_2  and  N5_5 
REMARK       I    between atoms: N5_5  and  C6_6 
REMARK       I    between atoms: C6_6  and  N8_8 
REMARK    2  A    between atoms: N8_8  and  C9_9 
REMARK    3  A    between atoms: C9_9  and  C11_10 
REMARK    4  A    between atoms: C9_9  and  C39_34 
REMARK       I    between atoms: C11_10  and  N13_12 
REMARK    5  A    between atoms: C19_16  and  C21_17 
REMARK       I    between atoms: C21_17  and  N23_19 
REMARK    6  A    between atoms: N23_19  and  C24_20 
REMARK    7  A    between atoms: C24_20  and  C26_21 
REMARK    8  A    between atoms: C24_20  and  C31_26 
REMARK    9  A    between atoms: C26_21  and  C27_22 
REMARK   10  A    between atoms: C31_26  and  C33_28 
REMARK       I    between atoms: C33_28  and  N34_29 
ROOT
ATOM      1  C11 ZIN AC000       4.551  -0.355  -4.254  0.00  0.00     0.244 C 
ATOM      2  O12 ZIN AC000       3.888  -0.862  -5.134  0.00  0.00    -0.271 OA
ATOM      3  N13 ZIN AC000       5.789   0.104  -4.523  0.00  0.00    -0.336 N 
ATOM      4  C14 ZIN AC000       6.783   0.649  -3.569  0.00  0.00     0.132 C 
ATOM      5  C15 ZIN AC000       7.432   1.834  -4.317  0.00  0.00     0.019 A 
ATOM      6  C17 ZIN AC000       7.223   1.522  -5.814  0.00  0.00     0.032 A 
ATOM      7  C19 ZIN AC000       6.468   0.171  -5.838  0.00  0.00     0.184 C 
ATOM      8  C36 ZIN AC000       6.524   2.755  -5.134  0.00  0.00    -0.036 A 
ATOM      9  C37 ZIN AC000       5.016   2.665  -4.892  0.00  0.00     0.016 C 
ATOM     10  C38 ZIN AC000       7.053   4.147  -5.485  0.00  0.00     0.016 C 
ENDROOT
BRANCH   1  11
ATOM     11  C9  ZIN AC000       3.990  -0.237  -2.860  0.00  0.00     0.185 C 
BRANCH  11  12
ATOM     12  N8  ZIN AC000       2.538  -0.055  -2.932  0.00  0.00    -0.329 N 
ATOM     13  C6  ZIN AC000       1.885   0.559  -1.925  0.00  0.00     0.317 C 
ATOM     14  N5  ZIN AC000       0.549   0.727  -1.992  0.00  0.00    -0.335 N 
ATOM     15  O7  ZIN AC000       2.501   0.962  -0.958  0.00  0.00    -0.247 OA
ATOM     16  H52 ZIN AC000       0.058   0.405  -2.764  0.00  0.00     0.165 HD
ATOM     17  H53 ZIN AC000       2.046  -0.376  -3.704  0.00  0.00     0.165 HD
BRANCH  14  18
ATOM     18  C2  ZIN AC000      -0.160   1.394  -0.897  0.00  0.00     0.023 C 
ATOM     19  C1  ZIN AC000       0.383   2.815  -0.729  0.00  0.00     0.037 C 
ATOM     20  C3  ZIN AC000       0.050   0.611   0.400  0.00  0.00     0.037 C 
ATOM     21  C4  ZIN AC000      -1.655   1.454  -1.220  0.00  0.00     0.037 C 
ENDBRANCH  14  18
ENDBRANCH  11  12
BRANCH  11  22
ATOM     22  C39 ZIN AC000       4.306  -1.511  -2.074  0.00  0.00    -0.022 C 
ATOM     23  C40 ZIN AC000       3.569  -2.695  -2.703  0.00  0.00     0.017 C 
ATOM     24  C41 ZIN AC000       5.813  -1.771  -2.109  0.00  0.00     0.017 C 
ATOM     25  C42 ZIN AC000       3.851  -1.340  -0.623  0.00  0.00     0.017 C 
ENDBRANCH  11  22
ENDBRANCH   1  11
BRANCH   7  26
ATOM     26  C21 ZIN AC000       7.439  -0.970  -5.999  0.00  0.00     0.241 C 
ATOM     27  O22 ZIN AC000       7.782  -1.616  -5.032  0.00  0.00    -0.271 OA
ATOM     28  N23 ZIN AC000       7.927  -1.272  -7.219  0.00  0.00    -0.347 N 
ATOM     29  H56 ZIN AC000       7.653  -0.755  -7.992  0.00  0.00     0.163 HD
BRANCH  28  30
ATOM     30  C24 ZIN AC000       8.871  -2.382  -7.375  0.00  0.00     0.165 C 
BRANCH  30  31
ATOM     31  C26 ZIN AC000       8.794  -2.918  -8.806  0.00  0.00     0.038 C 
BRANCH  31  32
ATOM     32  C27 ZIN AC000       7.412  -3.526  -9.050  0.00  0.00    -0.012 C 
ATOM     33  C30 ZIN AC000       7.270  -4.204 -10.423  0.00  0.00     0.005 C 
ATOM     34  C29 ZIN AC000       5.858  -3.599 -10.489  0.00  0.00     0.001 C 
ATOM     35  C28 ZIN AC000       6.367  -2.506  -9.534  0.00  0.00     0.005 C 
ENDBRANCH  31  32
ENDBRANCH  30  31
BRANCH  30  36
ATOM     36  C31 ZIN AC000      10.270  -1.895  -7.096  0.00  0.00     0.238 C 
ATOM     37  O32 ZIN AC000      10.501  -0.710  -7.064  0.00  0.00    -0.285 OA
BRANCH  36  38
ATOM     38  C33 ZIN AC000      11.367  -2.875  -6.858  0.00  0.00     0.287 C 
ATOM     39  N34 ZIN AC000      12.617  -2.440  -6.608  0.00  0.00    -0.363 N 
ATOM     40  H66 ZIN AC000      12.804  -1.488  -6.582  0.00  0.00     0.159 HD
ATOM     41  H67 ZIN AC000      13.331  -3.078  -6.453  0.00  0.00     0.159 HD
ATOM     42  O35 ZIN AC000      11.134  -4.066  -6.890  0.00  0.00    -0.265 OA
ENDBRANCH  36  38
ENDBRANCH  30  36
ENDBRANCH  28  30
ENDBRANCH   7  26
TORSDOF 10
