REMARK  1 active torsions:
REMARK  status: ('A' for Active; 'I' for Inactive)
REMARK    1  A    between atoms: C6_6  and  C8_8 
ROOT
ATOM      1  C1  <0> d          -0.025   1.456  -0.013  0.00  0.00     0.162 C 
ATOM      2  N2  <0> d          -0.001  -0.009  -0.012  0.00  0.00    -0.292 N 
ATOM      3  C3  <0> d           0.010  -0.734  -1.137  0.00  0.00     0.227 A 
ATOM      4  O4  <0> d           0.002  -0.284  -2.263  0.00  0.00    -0.273 OA
ATOM      5  C5  <0> d           0.034  -2.205  -0.781  0.00  0.00     0.127 A 
ATOM      6  C6  <0> d           0.035  -2.204   0.761  0.00  0.00     0.073 A 
ATOM      7  C7  <0> d           1.305  -2.866   1.299  0.00  0.00     0.031 C 
ATOM      8  C14 <0> d           0.017  -0.732   1.114  0.00  0.00     0.239 A 
ATOM      9  O15 <0> d           0.013  -0.280   2.239  0.00  0.00    -0.272 OA
ENDROOT
BRANCH   6  10
ATOM     10  C8  <0> d          -1.191  -2.900   1.293  0.00  0.00    -0.040 A 
ATOM     11  C13 <0> d          -1.062  -4.079   2.003  0.00  0.00     0.008 A 
ATOM     12  C12 <0> d          -2.187  -4.716   2.495  0.00  0.00     0.001 A 
ATOM     13  C11 <0> d          -3.440  -4.178   2.269  0.00  0.00     0.000 A 
ATOM     14  C10 <0> d          -3.568  -3.001   1.555  0.00  0.00     0.001 A 
ATOM     15  C9  <0> d          -2.444  -2.362   1.067  0.00  0.00     0.008 A 
ENDBRANCH   6  10
TORSDOF 1
