REMARK  5 active torsions:
REMARK  status: ('A' for Active; 'I' for Inactive)
REMARK    1  A    between atoms: O2_2  and  C3_3 
REMARK    2  A    between atoms: C7_7  and  O8_8 
REMARK    3  A    between atoms: C10_10  and  O11_11 
REMARK    4  A    between atoms: C16_16  and  O17_17 
REMARK    5  A    between atoms: C23_23  and  N25_24 
REMARK       I    between atoms: N25_24  and  C26_25 
ROOT
ATOM      1  C3  ZIN AC000       0.589  -0.747  -0.996  0.00  0.00     0.104 A 
ATOM      2  C4  ZIN AC000       1.123   0.148  -1.914  0.00  0.00     0.047 A 
ATOM      3  C5  ZIN AC000       1.757  -0.320  -3.046  0.00  0.00    -0.041 A 
ATOM      4  C6  ZIN AC000       1.867  -1.689  -3.264  0.00  0.00     0.017 A 
ATOM      5  C7  ZIN AC000       1.327  -2.596  -2.347  0.00  0.00     0.116 A 
ATOM      6  C10 ZIN AC000       0.692  -2.118  -1.208  0.00  0.00     0.136 A 
ATOM      7  C13 ZIN AC000       2.576  -2.198  -4.477  0.00  0.00    -0.014 A 
ATOM      8  C14 ZIN AC000       1.933  -3.164  -5.207  0.00  0.00     0.016 A 
ATOM      9  C15 ZIN AC000       2.251  -3.814  -6.343  0.00  0.00     0.042 A 
ATOM     10  C16 ZIN AC000       3.347  -3.659  -7.134  0.00  0.00     0.118 A 
ATOM     11  C19 ZIN AC000       4.389  -2.768  -6.904  0.00  0.00     0.205 A 
ATOM     12  O20 ZIN AC000       5.256  -2.731  -7.766  0.00  0.00    -0.285 OA
ATOM     13  C21 ZIN AC000       4.571  -1.927  -5.842  0.00  0.00     0.068 A 
ATOM     14  C22 ZIN AC000       3.829  -1.652  -4.755  0.00  0.00    -0.020 A 
ATOM     15  C23 ZIN AC000       4.431  -0.681  -3.760  0.00  0.00     0.119 C 
ATOM     16  C29 ZIN AC000       3.843   0.708  -3.906  0.00  0.00     0.034 C 
ATOM     17  C30 ZIN AC000       2.325   0.649  -4.051  0.00  0.00     0.042 C 
ENDROOT
BRANCH  15  18
ATOM     18  N25 ZIN AC000       5.878  -0.611  -3.976  0.00  0.00    -0.353 N 
ATOM     19  C26 ZIN AC000       6.691  -1.516  -3.397  0.00  0.00     0.214 C 
ATOM     20  C27 ZIN AC000       8.180  -1.444  -3.619  0.00  0.00     0.117 C 
ATOM     21  O28 ZIN AC000       6.224  -2.389  -2.696  0.00  0.00    -0.274 OA
ATOM     22  H47 ZIN AC000       6.252   0.087  -4.537  0.00  0.00     0.163 HD
ENDBRANCH  15  18
BRANCH   5  23
ATOM     23  O8  ZIN AC000       1.426  -3.933  -2.566  0.00  0.00    -0.352 OA
ATOM     24  C9  ZIN AC000       2.636  -4.570  -2.150  0.00  0.00     0.210 C 
ENDBRANCH   5  23
BRANCH  10  25
ATOM     25  O17 ZIN AC000       3.430  -4.440  -8.239  0.00  0.00    -0.352 OA
ATOM     26  C18 ZIN AC000       2.356  -5.354  -8.470  0.00  0.00     0.210 C 
ENDBRANCH  10  25
BRANCH   6  27
ATOM     27  O11 ZIN AC000       0.164  -2.989  -0.306  0.00  0.00    -0.351 OA
ATOM     28  C12 ZIN AC000       0.974  -3.327   0.821  0.00  0.00     0.210 C 
ENDBRANCH   6  27
BRANCH   1  29
ATOM     29  O2  ZIN AC000      -0.033  -0.281   0.119  0.00  0.00    -0.353 OA
ATOM     30  C1  ZIN AC000      -0.105   1.137   0.277  0.00  0.00     0.210 C 
ENDBRANCH   1  29
TORSDOF 5
