REMARK  0 active torsions:
REMARK  status: ('A' for Active; 'I' for Inactive)
ROOT
ATOM      1  C1  ZIN AC000      -0.018   1.461   0.010  0.00  0.00     0.163 C 
ATOM      2  N2  ZIN AC000       0.002  -0.004   0.002  0.00  0.00    -0.287 N 
ATOM      3  C3  ZIN AC000      -1.185  -0.700   0.004  0.00  0.00     0.148 A 
ATOM      4  C4  ZIN AC000      -1.156  -2.089  -0.004  0.00  0.00     0.172 A 
ATOM      5  N5  ZIN AC000      -2.440  -2.522  -0.000  0.00  0.00    -0.215 NA
ATOM      6  C6  ZIN AC000      -3.237  -1.491   0.009  0.00  0.00     0.178 A 
ATOM      7 Br7  ZIN AC000      -5.126  -1.571   0.019  0.00  0.00    -0.008 Br
ATOM      8  N8  ZIN AC000      -2.497  -0.343   0.013  0.00  0.00    -0.319 N 
ATOM      9  C9  ZIN AC000       0.147  -2.756  -0.015  0.00  0.00     0.283 A 
ATOM     10  O10 ZIN AC000       0.224  -3.971  -0.022  0.00  0.00    -0.265 OA
ATOM     11  N11 ZIN AC000       1.262  -1.993  -0.016  0.00  0.00    -0.269 N 
ATOM     12  C12 ZIN AC000       2.577  -2.637  -0.026  0.00  0.00     0.164 C 
ATOM     13  C13 ZIN AC000       1.180  -0.652  -0.013  0.00  0.00     0.332 A 
ATOM     14  O14 ZIN AC000       2.208  -0.002  -0.014  0.00  0.00    -0.246 OA
ATOM     15  H18 ZIN AC000      -2.845   0.562   0.020  0.00  0.00     0.169 HD
ENDROOT
TORSDOF 0
