REMARK  11 active torsions:
REMARK  status: ('A' for Active; 'I' for Inactive)
REMARK    1  A    between atoms: C2_2  and  N3_3 
REMARK    2  A    between atoms: N3_3  and  C4_4 
REMARK    3  A    between atoms: N3_3  and  C6_6 
REMARK    4  A    between atoms: C6_6  and  C7_7 
REMARK    5  A    between atoms: C8_8  and  C9_9 
REMARK    6  A    between atoms: C9_9  and  O10_10 
REMARK    7  A    between atoms: O10_10  and  C11_11 
REMARK    8  A    between atoms: C11_11  and  C13_13 
REMARK    9  A    between atoms: C13_13  and  O14_14 
REMARK   10  A    between atoms: C13_13  and  C15_15 
REMARK   11  A    between atoms: C13_13  and  C21_21 
ROOT
ATOM      1  C13 ZIN AC000      -0.607   5.857  -6.101  0.00  0.00     0.176 C 
ENDROOT
BRANCH   1   2
ATOM      2  C11 ZIN AC000       0.036   5.427  -4.808  0.00  0.00     0.299 C 
ATOM      3  O12 ZIN AC000       0.619   6.235  -4.125  0.00  0.00    -0.261 OA
BRANCH   2   4
ATOM      4  O10 ZIN AC000      -0.039   4.145  -4.415  0.00  0.00    -0.307 OA
BRANCH   4   5
ATOM      5  C9  ZIN AC000       0.604   3.802  -3.159  0.00  0.00     0.272 C 
BRANCH   5   6
ATOM      6  C8  ZIN AC000       0.421   2.366  -2.891  0.00  0.00    -0.078 C 
ATOM      7  C7  ZIN AC000       0.275   1.221  -2.677  0.00  0.00    -0.074 C 
BRANCH   7   8
ATOM      8  C6  ZIN AC000       0.092  -0.215  -2.408  0.00  0.00     0.365 C 
BRANCH   8   9
ATOM      9  N3  ZIN AC000       0.742  -0.562  -1.138  0.00  0.00     0.098 N 
BRANCH   9  10
ATOM     10  C2  ZIN AC000      -0.061  -0.110   0.006  0.00  0.00     0.269 C 
ATOM     11  C1  ZIN AC000      -1.339  -0.947   0.094  0.00  0.00     0.037 C 
ENDBRANCH   9  10
BRANCH   9  12
ATOM     12  C4  ZIN AC000       1.006  -2.005  -1.058  0.00  0.00     0.269 C 
ATOM     13  C5  ZIN AC000       1.897  -2.295   0.151  0.00  0.00     0.037 C 
ENDBRANCH   9  12
ENDBRANCH   8   9
ENDBRANCH   7   8
ENDBRANCH   5   6
ENDBRANCH   4   5
ENDBRANCH   2   4
ENDBRANCH   1   2
BRANCH   1  14
ATOM     14  O14 ZIN AC000      -0.497   4.805  -7.061  0.00  0.00    -0.374 OA
ATOM     15  H41 ZIN AC000       0.413   4.553  -7.266  0.00  0.00     0.211 HD
ENDBRANCH   1  14
BRANCH   1  16
ATOM     16  C15 ZIN AC000       0.089   7.088  -6.622  0.00  0.00    -0.014 A 
ATOM     17  C20 ZIN AC000       1.172   6.962  -7.472  0.00  0.00     0.011 A 
ATOM     18  C19 ZIN AC000       1.808   8.091  -7.954  0.00  0.00     0.001 A 
ATOM     19  C18 ZIN AC000       1.365   9.346  -7.579  0.00  0.00     0.000 A 
ATOM     20  C17 ZIN AC000       0.285   9.472  -6.725  0.00  0.00     0.001 A 
ATOM     21  C16 ZIN AC000      -0.353   8.343  -6.247  0.00  0.00     0.011 A 
ENDBRANCH   1  16
BRANCH   1  22
ATOM     22  C21 ZIN AC000      -2.084   6.172  -5.856  0.00  0.00     0.035 C 
ATOM     23  C26 ZIN AC000      -2.791   4.922  -5.326  0.00  0.00     0.008 C 
ATOM     24  C25 ZIN AC000      -4.268   5.237  -5.081  0.00  0.00     0.001 C 
ATOM     25  C24 ZIN AC000      -4.921   5.674  -6.393  0.00  0.00     0.000 C 
ATOM     26  C23 ZIN AC000      -4.215   6.924  -6.923  0.00  0.00     0.001 C 
ATOM     27  C22 ZIN AC000      -2.737   6.609  -7.168  0.00  0.00     0.008 C 
ENDBRANCH   1  22
TORSDOF 11
