REMARK  10 active torsions:
REMARK  status: ('A' for Active; 'I' for Inactive)
REMARK    1  A    between atoms: C2_2  and  O3_3 
REMARK    2  A    between atoms: O3_3  and  C4_4 
REMARK    3  A    between atoms: C4_4  and  C6_6 
REMARK    4  A    between atoms: C6_6  and  C8_7 
REMARK    5  A    between atoms: C6_6  and  N16_15 
REMARK    6  A    between atoms: C8_7  and  C9_8 
REMARK    7  A    between atoms: C9_8  and  C10_9 
REMARK    8  A    between atoms: N16_15  and  C17_16 
REMARK    9  A    between atoms: C17_16  and  C20_18 
REMARK       I    between atoms: C20_18  and  N22_20 
REMARK   10  A    between atoms: C31_29  and  C33_30 
ROOT
ATOM      1  C17 ZIN AC000       7.009  -5.445  -3.777  0.00  0.00     0.308 C 
ATOM      2  C19 ZIN AC000       6.589  -3.974  -3.740  0.00  0.00     0.053 C 
ENDROOT
BRANCH   1   3
ATOM      3  N16 ZIN AC000       7.571  -5.760  -5.098  0.00  0.00     0.111 N 
ATOM      4  H50 ZIN AC000       7.054  -5.296  -5.830  0.00  0.00     0.318 HD
BRANCH   3   5
ATOM      5  C6  ZIN AC000       8.997  -5.416  -5.159  0.00  0.00     0.320 C 
BRANCH   5   6
ATOM      6  C4  ZIN AC000       9.148  -3.959  -5.515  0.00  0.00     0.292 C 
ATOM      7  O5  ZIN AC000       8.167  -3.278  -5.699  0.00  0.00    -0.263 OA
BRANCH   6   8
ATOM      8  O3  ZIN AC000      10.371  -3.419  -5.628  0.00  0.00    -0.320 OA
BRANCH   8   9
ATOM      9  C2  ZIN AC000      10.440  -2.010  -5.974  0.00  0.00     0.174 C 
ATOM     10  C1  ZIN AC000      11.905  -1.577  -6.057  0.00  0.00     0.034 C 
ENDBRANCH   8   9
ENDBRANCH   6   8
ENDBRANCH   5   6
BRANCH   5  11
ATOM     11  C8  ZIN AC000       9.684  -6.274  -6.224  0.00  0.00     0.051 C 
BRANCH  11  12
ATOM     12  C9  ZIN AC000       9.640  -7.744  -5.800  0.00  0.00     0.041 C 
BRANCH  12  13
ATOM     13  C10 ZIN AC000      10.316  -8.589  -6.848  0.00  0.00    -0.058 A 
ATOM     14  C15 ZIN AC000      11.671  -8.845  -6.762  0.00  0.00     0.007 A 
ATOM     15  C14 ZIN AC000      12.291  -9.624  -7.721  0.00  0.00     0.001 A 
ATOM     16  C13 ZIN AC000      11.556 -10.140  -8.772  0.00  0.00     0.000 A 
ATOM     17  C12 ZIN AC000      10.201  -9.881  -8.861  0.00  0.00     0.001 A 
ATOM     18  C11 ZIN AC000       9.581  -9.105  -7.899  0.00  0.00     0.007 A 
ENDBRANCH  12  13
ENDBRANCH  11  12
ENDBRANCH   5  11
ENDBRANCH   3   5
ENDBRANCH   1   3
BRANCH   1  19
ATOM     19  C20 ZIN AC000       5.808  -6.317  -3.520  0.00  0.00     0.254 C 
ATOM     20  O21 ZIN AC000       5.090  -6.646  -4.440  0.00  0.00    -0.271 OA
ATOM     21  N22 ZIN AC000       5.532  -6.733  -2.268  0.00  0.00    -0.331 N 
ATOM     22  C31 ZIN AC000       4.437  -7.680  -1.999  0.00  0.00     0.192 C 
ATOM     23  C23 ZIN AC000       6.306  -6.254  -1.118  0.00  0.00     0.166 C 
ATOM     24  C30 ZIN AC000       3.392  -6.969  -1.150  0.00  0.00     0.075 C 
ATOM     25  C29 ZIN AC000       4.038  -6.242  -0.001  0.00  0.00    -0.048 A 
ATOM     26  C24 ZIN AC000       5.372  -5.899   0.011  0.00  0.00    -0.034 A 
ATOM     27  C28 ZIN AC000       3.234  -5.899   1.079  0.00  0.00     0.008 A 
ATOM     28  C25 ZIN AC000       5.896  -5.202   1.091  0.00  0.00     0.009 A 
ATOM     29  C26 ZIN AC000       5.093  -4.858   2.159  0.00  0.00     0.001 A 
ATOM     30  C27 ZIN AC000       3.757  -5.210   2.153  0.00  0.00     0.001 A 
BRANCH  22  31
ATOM     31  C33 ZIN AC000       3.820  -8.129  -3.299  0.00  0.00     0.197 C 
ATOM     32  O34 ZIN AC000       2.669  -7.826  -3.563  0.00  0.00    -0.646 OA
ATOM     33  O35 ZIN AC000       4.471  -8.794  -4.085  0.00  0.00    -0.646 OA
ENDBRANCH  22  31
ENDBRANCH   1  19
TORSDOF 10
