REMARK  2 active torsions:
REMARK  status: ('A' for Active; 'I' for Inactive)
REMARK    1  A    between atoms: O2_2  and  C3_3 
REMARK    2  A    between atoms: C14_12  and  O16_13 
ROOT
ATOM      1  C3  ZIN AC000      -1.201  -0.638   0.010  0.00  0.00     0.102 A 
ATOM      2  C4  ZIN AC000      -2.399   0.074   0.019  0.00  0.00     0.040 A 
ATOM      3  C5  ZIN AC000      -3.647  -0.529   0.038  0.00  0.00     0.011 A 
ATOM      4  C6  ZIN AC000      -3.752  -1.908   0.033  0.00  0.00    -0.046 A 
ATOM      5  C7  ZIN AC000      -5.027  -2.681   0.126  0.00  0.00     0.073 C 
ATOM      6  C8  ZIN AC000      -4.833  -4.183   0.005  0.00  0.00     0.200 C 
ATOM      7  C10 ZIN AC000      -3.546  -4.722   0.613  0.00  0.00     0.055 C 
ATOM      8  C12 ZIN AC000      -3.448  -4.575   2.086  0.00  0.00    -0.020 C 
ATOM      9  C13 ZIN AC000      -2.340  -4.247   2.672  0.00  0.00     0.003 C 
ATOM     10  C14 ZIN AC000      -1.055  -3.907   2.010  0.00  0.00     0.171 C 
ATOM     11  C17 ZIN AC000      -0.998  -4.224   0.511  0.00  0.00     0.175 C 
ATOM     12  O19 ZIN AC000      -0.355  -3.025  -0.061  0.00  0.00    -0.338 OA
ATOM     13  C20 ZIN AC000      -1.292  -2.033   0.004  0.00  0.00     0.110 A 
ATOM     14  C21 ZIN AC000      -2.562  -2.594  -0.018  0.00  0.00    -0.003 A 
ATOM     15  C22 ZIN AC000      -2.380  -4.088  -0.110  0.00  0.00     0.030 C 
ATOM     16  C23 ZIN AC000      -2.412  -4.490  -1.586  0.00  0.00     0.045 C 
ATOM     17  C24 ZIN AC000      -3.747  -3.993  -2.162  0.00  0.00     0.236 C 
ATOM     18  N25 ZIN AC000      -4.859  -4.586  -1.411  0.00  0.00    -0.070 N 
ATOM     19  H26 ZIN AC000      -5.730  -4.255  -1.797  0.00  0.00     0.279 HD
ATOM     20  C27 ZIN AC000      -4.801  -6.048  -1.542  0.00  0.00     0.270 C 
ENDROOT
BRANCH   1  21
ATOM     21  O2  ZIN AC000       0.002  -0.004   0.002  0.00  0.00    -0.353 OA
ATOM     22  C1  ZIN AC000      -0.017   1.425   0.010  0.00  0.00     0.210 C 
ENDBRANCH   1  21
BRANCH  10  23
ATOM     23  O16 ZIN AC000      -0.815  -2.509   2.182  0.00  0.00    -0.389 OA
ATOM     24  H37 ZIN AC000      -0.754  -2.231   3.106  0.00  0.00     0.210 HD
ENDBRANCH  10  23
TORSDOF 2
