REMARK  1 active torsions:
REMARK  status: ('A' for Active; 'I' for Inactive)
REMARK    1  A    between atoms: C8_8  and  C9_9 
ROOT
ATOM      1  C1  <0> d          -0.033   1.487  -0.016  0.00  0.00     0.093 C 
ATOM      2  C2  <0> d          -0.007  -0.019  -0.013  0.00  0.00     0.131 A 
ATOM      3  N3  <0> d           0.003  -0.800  -1.063  0.00  0.00    -0.135 NA
ATOM      4  N4  <0> d           0.012  -2.033  -0.692  0.00  0.00    -0.133 NA
ATOM      5  C5  <0> d          -0.003  -2.099   0.608  0.00  0.00     0.154 A 
ATOM      6  C6  <0> d          -0.066  -3.340   1.463  0.00  0.00     0.230 C 
ATOM      7  N7  <0> d          -1.285  -3.264   2.274  0.00  0.00    -0.281 NA
ATOM      8  C8  <0> d          -1.482  -2.313   3.120  0.00  0.00     0.074 C 
ATOM      9  C15 <0> d          -0.607  -1.173   3.413  0.00  0.00     0.022 A 
ATOM     10  C16 <0> d          -0.444  -0.793   4.754  0.00  0.00     0.040 A 
ATOM     11  C17 <0> d           0.342   0.288   5.085  0.00  0.00     0.035 A 
ATOM     12 Cl18 <0> d           0.536   0.739   6.750  0.00  0.00    -0.084 Cl
ATOM     13  C19 <0> d           0.978   1.017   4.093  0.00  0.00     0.026 A 
ATOM     14  C20 <0> d           0.837   0.651   2.771  0.00  0.00     0.033 A 
ATOM     15  C21 <0> d           0.061  -0.450   2.422  0.00  0.00     0.055 A 
ATOM     16  N22 <0> d           0.018  -0.827   1.080  0.00  0.00    -0.282 N 
ENDROOT
BRANCH   8  17
ATOM     17  C9  <0> d          -2.744  -2.380   3.892  0.00  0.00    -0.007 A 
ATOM     18  C14 <0> d          -3.381  -3.605   4.087  0.00  0.00     0.014 A 
ATOM     19  C13 <0> d          -4.554  -3.662   4.812  0.00  0.00     0.001 A 
ATOM     20  C12 <0> d          -5.105  -2.505   5.334  0.00  0.00     0.000 A 
ATOM     21  C11 <0> d          -4.481  -1.286   5.138  0.00  0.00     0.001 A 
ATOM     22  C10 <0> d          -3.304  -1.217   4.420  0.00  0.00     0.014 A 
ENDBRANCH   8  17
TORSDOF 1
