REMARK  10 active torsions:
REMARK  status: ('A' for Active; 'I' for Inactive)
REMARK    1  A    between atoms: C2_2  and  O3_3 
REMARK    2  A    between atoms: O3_3  and  C4_4 
REMARK    3  A    between atoms: C4_4  and  C6_6 
REMARK    4  A    between atoms: C6_6  and  C8_7 
REMARK    5  A    between atoms: C6_6  and  N16_15 
REMARK    6  A    between atoms: C8_7  and  C9_8 
REMARK    7  A    between atoms: C9_8  and  C10_9 
REMARK    8  A    between atoms: N16_15  and  C17_16 
REMARK    9  A    between atoms: C17_16  and  C20_18 
REMARK       I    between atoms: C20_18  and  N22_20 
REMARK   10  A    between atoms: C26_24  and  C28_25 
ROOT
ATOM      1  C6  <0> d          -2.902  -2.434   0.017  0.00  0.00     0.320 C 
ENDROOT
BRANCH   1   2
ATOM      2  C4  <0> d          -1.518  -1.840   0.007  0.00  0.00     0.292 C 
ATOM      3  O5  <0> d          -0.550  -2.562  -0.006  0.00  0.00    -0.263 OA
BRANCH   2   4
ATOM      4  O3  <0> d          -1.360  -0.507   0.012  0.00  0.00    -0.320 OA
BRANCH   4   5
ATOM      5  C2  <0> d           0.002  -0.004   0.002  0.00  0.00     0.174 C 
ATOM      6  C1  <0> d          -0.019   1.526   0.010  0.00  0.00     0.034 C 
ENDBRANCH   4   5
ENDBRANCH   2   4
ENDBRANCH   1   2
BRANCH   1   7
ATOM      7  C8  <0> d          -3.644  -1.980   1.276  0.00  0.00     0.051 C 
BRANCH   7   8
ATOM      8  C9  <0> d          -5.089  -2.481   1.225  0.00  0.00     0.041 C 
BRANCH   8   9
ATOM      9  C10 <0> d          -5.819  -2.033   2.465  0.00  0.00    -0.058 A 
ATOM     10  C15 <0> d          -6.483  -0.821   2.476  0.00  0.00     0.007 A 
ATOM     11  C14 <0> d          -7.157  -0.412   3.612  0.00  0.00     0.001 A 
ATOM     12  C13 <0> d          -7.158  -1.211   4.740  0.00  0.00     0.000 A 
ATOM     13  C12 <0> d          -6.489  -2.421   4.731  0.00  0.00     0.001 A 
ATOM     14  C11 <0> d          -5.819  -2.832   3.594  0.00  0.00     0.007 A 
ENDBRANCH   8   9
ENDBRANCH   7   8
ENDBRANCH   1   7
BRANCH   1  15
ATOM     15  N16 <0> d          -2.806  -3.900   0.008  0.00  0.00     0.111 N 
ATOM     16  H45 <0> d          -2.045  -4.216   0.591  0.00  0.00     0.318 HD
BRANCH  15  17
ATOM     17  C17 <0> d          -2.665  -4.410  -1.363  0.00  0.00     0.308 C 
ATOM     18  C19 <0> d          -1.191  -4.376  -1.770  0.00  0.00     0.053 C 
BRANCH  17  19
ATOM     19  C20 <0> d          -3.171  -5.829  -1.425  0.00  0.00     0.253 C 
ATOM     20  O21 <0> d          -3.606  -6.362  -0.426  0.00  0.00    -0.271 OA
ATOM     21  N22 <0> d          -3.139  -6.504  -2.591  0.00  0.00    -0.336 N 
ATOM     22  C26 <0> d          -3.599  -7.886  -2.793  0.00  0.00     0.188 C 
ATOM     23  C23 <0> d          -2.634  -5.982  -3.873  0.00  0.00     0.127 C 
ATOM     24  C25 <0> d          -3.397  -8.223  -4.285  0.00  0.00     0.038 C 
ATOM     25  C24 <0> d          -3.354  -6.824  -4.956  0.00  0.00     0.022 C 
BRANCH  22  26
ATOM     26  C28 <0> d          -2.794  -8.834  -1.940  0.00  0.00     0.196 C 
ATOM     27  O29 <0> d          -1.639  -8.567  -1.656  0.00  0.00    -0.646 OA
ATOM     28  O30 <0> d          -3.299  -9.867  -1.536  0.00  0.00    -0.646 OA
ENDBRANCH  22  26
ENDBRANCH  17  19
ENDBRANCH  15  17
ENDBRANCH   1  15
TORSDOF 10
