REMARK  12 active torsions:
REMARK  status: ('A' for Active; 'I' for Inactive)
REMARK    1  A    between atoms: C3_3  and  O4_4 
REMARK    2  A    between atoms: C8_8  and  C9_9 
REMARK       I    between atoms: C9_9  and  N11_11 
REMARK    3  A    between atoms: N11_11  and  C12_12 
REMARK    4  A    between atoms: C12_12  and  C14_13 
REMARK    5  A    between atoms: C12_12  and  C22_21 
REMARK    6  A    between atoms: C14_13  and  S15_14 
REMARK    7  A    between atoms: S15_14  and  C16_15 
REMARK    8  A    between atoms: C22_21  and  O24_22 
REMARK    9  A    between atoms: C22_21  and  C25_23 
REMARK   10  A    between atoms: C25_23  and  N26_24 
REMARK   11  A    between atoms: C37_33  and  C39_34 
REMARK       I    between atoms: C39_34  and  N41_36 
REMARK   12  A    between atoms: N41_36  and  C42_37 
ROOT
ATOM      1  C12 ZIN AC000       0.495   0.039   4.926  0.00  0.00     0.124 C 
ENDROOT
BRANCH   1   2
ATOM      2  N11 ZIN AC000       0.397  -0.667   3.646  0.00  0.00    -0.349 N 
ATOM      3  C9  ZIN AC000       0.113   0.016   2.519  0.00  0.00     0.252 C 
ATOM      4  O10 ZIN AC000      -0.063   1.218   2.565  0.00  0.00    -0.268 OA
ATOM      5  H53 ZIN AC000       0.537  -1.627   3.609  0.00  0.00     0.163 HD
BRANCH   3   6
ATOM      6  C8  ZIN AC000       0.014  -0.697   1.227  0.00  0.00     0.040 A 
ATOM      7  C2  ZIN AC000      -0.205   0.018   0.049  0.00  0.00    -0.013 A 
ATOM      8  C1  ZIN AC000      -0.337   1.518   0.088  0.00  0.00     0.052 C 
ATOM      9  C3  ZIN AC000      -0.297  -0.656  -1.157  0.00  0.00     0.072 A 
ATOM     10  C5  ZIN AC000      -0.174  -2.039  -1.191  0.00  0.00     0.037 A 
ATOM     11  C6  ZIN AC000       0.038  -2.748  -0.024  0.00  0.00     0.004 A 
ATOM     12  C7  ZIN AC000       0.130  -2.087   1.183  0.00  0.00     0.018 A 
BRANCH   9  13
ATOM     13  O4  ZIN AC000      -0.505   0.036  -2.308  0.00  0.00    -0.360 OA
ATOM     14  H49 ZIN AC000       0.307   0.316  -2.752  0.00  0.00     0.217 HD
ENDBRANCH   9  13
ENDBRANCH   3   6
ENDBRANCH   1   2
BRANCH   1  15
ATOM     15  C14 ZIN AC000      -0.900   0.179   5.538  0.00  0.00     0.107 C 
BRANCH  15  16
ATOM     16  S15 ZIN AC000      -1.964   1.119   4.409  0.00  0.00    -0.128 SA
BRANCH  16  17
ATOM     17  C16 ZIN AC000      -3.501   1.178   5.269  0.00  0.00     0.000 A 
ATOM     18  C21 ZIN AC000      -4.590   1.831   4.705  0.00  0.00     0.018 A 
ATOM     19  C20 ZIN AC000      -5.795   1.870   5.379  0.00  0.00     0.001 A 
ATOM     20  C19 ZIN AC000      -5.915   1.270   6.619  0.00  0.00     0.000 A 
ATOM     21  C18 ZIN AC000      -4.831   0.624   7.186  0.00  0.00     0.001 A 
ATOM     22  C17 ZIN AC000      -3.625   0.576   6.515  0.00  0.00     0.018 A 
ENDBRANCH  16  17
ENDBRANCH  15  16
ENDBRANCH   1  15
BRANCH   1  23
ATOM     23  C22 ZIN AC000       1.392  -0.754   5.878  0.00  0.00     0.170 C 
BRANCH  23  24
ATOM     24  O24 ZIN AC000       0.774  -2.006   6.183  0.00  0.00    -0.392 OA
ATOM     25  H61 ZIN AC000      -0.091  -1.925   6.607  0.00  0.00     0.210 HD
ENDBRANCH  23  24
BRANCH  23  26
ATOM     26  C25 ZIN AC000       1.595   0.042   7.168  0.00  0.00     0.307 C 
BRANCH  26  27
ATOM     27  N26 ZIN AC000       2.576  -0.645   8.019  0.00  0.00     0.105 N 
ATOM     28  C37 ZIN AC000       1.979  -1.819   8.668  0.00  0.00     0.314 C 
ATOM     29  C36 ZIN AC000       2.982  -2.413   9.645  0.00  0.00     0.050 C 
ATOM     30  C34 ZIN AC000       4.252  -2.823   8.896  0.00  0.00    -0.006 C 
ATOM     31  C28 ZIN AC000       4.829  -1.588   8.199  0.00  0.00     0.018 C 
ATOM     32  C33 ZIN AC000       5.274  -3.386   9.883  0.00  0.00     0.005 C 
ATOM     33  C27 ZIN AC000       3.773  -1.012   7.251  0.00  0.00     0.278 C 
ATOM     34  C30 ZIN AC000       5.199  -0.529   9.240  0.00  0.00     0.007 C 
ATOM     35  C31 ZIN AC000       6.233  -1.104  10.211  0.00  0.00     0.000 C 
ATOM     36  C32 ZIN AC000       5.641  -2.323  10.920  0.00  0.00     0.000 C 
BRANCH  28  37
ATOM     37  C39 ZIN AC000       0.742  -1.393   9.416  0.00  0.00     0.252 C 
ATOM     38  O40 ZIN AC000       0.581  -0.227   9.708  0.00  0.00    -0.271 OA
ATOM     39  N41 ZIN AC000      -0.186  -2.308   9.760  0.00  0.00    -0.351 N 
ATOM     40  H76 ZIN AC000      -0.057  -3.241   9.527  0.00  0.00     0.163 HD
BRANCH  39  41
ATOM     41  C42 ZIN AC000      -1.388  -1.894  10.487  0.00  0.00     0.022 C 
ATOM     42  C43 ZIN AC000      -2.166  -0.877   9.650  0.00  0.00     0.037 C 
ATOM     43  C44 ZIN AC000      -2.270  -3.116  10.753  0.00  0.00     0.037 C 
ATOM     44  C45 ZIN AC000      -0.986  -1.257  11.819  0.00  0.00     0.037 C 
ENDBRANCH  39  41
ENDBRANCH  28  37
ENDBRANCH  26  27
ENDBRANCH  23  26
ENDBRANCH   1  23
TORSDOF 12
