REMARK  8 active torsions:
REMARK  status: ('A' for Active; 'I' for Inactive)
REMARK    1  A    between atoms: C5_5  and  C6_6 
REMARK    2  A    between atoms: N9_9  and  C10_10 
REMARK    3  A    between atoms: N20_17  and  C22_19 
REMARK    4  A    between atoms: C22_19  and  C23_20 
REMARK    5  A    between atoms: C23_20  and  C24_21 
REMARK    6  A    between atoms: C24_21  and  N26_22 
REMARK    7  A    between atoms: C24_21  and  C37_33 
REMARK       I    between atoms: N26_22  and  C27_23 
REMARK    8  A    between atoms: C27_23  and  C29_25 
ROOT
ATOM      1  C23 ZIN AC000      -2.008   3.507   5.391  0.00  0.00     0.057 C 
ENDROOT
BRANCH   1   2
ATOM      2  C22 ZIN AC000      -0.753   2.637   5.485  0.00  0.00     0.238 C 
BRANCH   2   3
ATOM      3  N20 ZIN AC000      -0.593   1.872   4.242  0.00  0.00    -0.062 N 
ATOM      4  C13 ZIN AC000      -1.617   0.797   4.145  0.00  0.00     0.190 C 
ATOM      5  C12 ZIN AC000      -1.560   0.241   2.713  0.00  0.00     0.059 C 
ATOM      6  C15 ZIN AC000      -1.117  -0.310   5.103  0.00  0.00     0.035 C 
ATOM      7  C10 ZIN AC000      -0.192  -0.408   2.487  0.00  0.00     0.097 C 
ATOM      8  C19 ZIN AC000       0.917   0.594   2.823  0.00  0.00     0.059 C 
ATOM      9  C17 ZIN AC000       0.696   1.101   4.257  0.00  0.00     0.190 C 
ATOM     10  C16 ZIN AC000       0.410  -0.109   5.176  0.00  0.00     0.035 C 
ATOM     11  H21 ZIN AC000      -0.631   2.484   3.441  0.00  0.00     0.280 HD
BRANCH   7  12
ATOM     12  N9  ZIN AC000      -0.072  -0.817   1.086  0.00  0.00    -0.315 N 
ATOM     13  C2  ZIN AC000       0.130  -2.071   0.617  0.00  0.00     0.126 A 
ATOM     14  C1  ZIN AC000       0.269  -3.323   1.445  0.00  0.00     0.093 C 
ATOM     15  N3  ZIN AC000       0.176  -1.997  -0.686  0.00  0.00    -0.135 NA
ATOM     16  N4  ZIN AC000       0.020  -0.775  -1.055  0.00  0.00    -0.134 NA
ATOM     17  C5  ZIN AC000      -0.132  -0.015  -0.005  0.00  0.00     0.134 A 
BRANCH  17  18
ATOM     18  C6  ZIN AC000      -0.342   1.478  -0.006  0.00  0.00     0.049 C 
ATOM     19  C7  ZIN AC000       0.854   2.160  -0.673  0.00  0.00     0.018 C 
ATOM     20  C8  ZIN AC000      -1.618   1.813  -0.780  0.00  0.00     0.018 C 
ENDBRANCH  17  18
ENDBRANCH   7  12
ENDBRANCH   2   3
ENDBRANCH   1   2
BRANCH   1  21
ATOM     21  C24 ZIN AC000      -2.175   4.304   6.686  0.00  0.00     0.119 C 
BRANCH  21  22
ATOM     22  N26 ZIN AC000      -2.424   3.383   7.798  0.00  0.00    -0.352 N 
ATOM     23  C27 ZIN AC000      -2.112   3.747   9.058  0.00  0.00     0.222 C 
ATOM     24  O28 ZIN AC000      -1.624   4.837   9.271  0.00  0.00    -0.273 OA
ATOM     25  H65 ZIN AC000      -2.814   2.511   7.628  0.00  0.00     0.163 HD
BRANCH  23  26
ATOM     26  C29 ZIN AC000      -2.368   2.800  10.201  0.00  0.00     0.078 C 
ATOM     27  C36 ZIN AC000      -1.927   3.452  11.513  0.00  0.00     0.020 C 
ATOM     28  C35 ZIN AC000      -2.188   2.490  12.674  0.00  0.00     0.080 C 
ATOM     29  C32 ZIN AC000      -1.395   1.200  12.455  0.00  0.00     0.243 C 
ATOM     30  C31 ZIN AC000      -1.836   0.547  11.143  0.00  0.00     0.080 C 
ATOM     31  F33 ZIN AC000      -1.633   0.320  13.516  0.00  0.00    -0.206 F 
ATOM     32  F34 ZIN AC000      -0.029   1.496  12.392  0.00  0.00    -0.206 F 
ATOM     33  C30 ZIN AC000      -1.576   1.509   9.982  0.00  0.00     0.020 C 
ENDBRANCH  23  26
ENDBRANCH  21  22
BRANCH  21  34
ATOM     34  C37 ZIN AC000      -3.339   5.251   6.548  0.00  0.00    -0.035 A 
ATOM     35  C42 ZIN AC000      -3.115   6.584   6.259  0.00  0.00     0.009 A 
ATOM     36  C41 ZIN AC000      -4.183   7.452   6.128  0.00  0.00     0.001 A 
ATOM     37  C40 ZIN AC000      -5.475   6.987   6.293  0.00  0.00     0.000 A 
ATOM     38  C39 ZIN AC000      -5.698   5.655   6.587  0.00  0.00     0.001 A 
ATOM     39  C38 ZIN AC000      -4.630   4.787   6.714  0.00  0.00     0.009 A 
ENDBRANCH  21  34
ENDBRANCH   1  21
TORSDOF 8
