REMARK  2 active torsions:
REMARK  status: ('A' for Active; 'I' for Inactive)
REMARK    1  A    between atoms: C2_2  and  O3_3 
REMARK    2  A    between atoms: O3_3  and  C4_4 
REMARK       I    between atoms: C4_4  and  N6_6 
ROOT
ATOM      1  C4  <0> d           0.786  -1.805  -1.354  0.00  0.00     0.362 C 
ATOM      2  O5  <0> d           0.323  -2.556  -0.519  0.00  0.00    -0.238 OA
ATOM      3  N6  <0> d           1.406  -2.306  -2.441  0.00  0.00    -0.327 N 
ATOM      4  C7  <0> d           1.975  -1.406  -3.452  0.00  0.00     0.132 C 
ATOM      5  C8  <0> d           3.470  -1.712  -3.600  0.00  0.00     0.055 C 
ATOM      6  C9  <0> d           3.638  -3.205  -3.776  0.00  0.00    -0.063 C 
ATOM      7  C10 <0> d           4.330  -3.701  -4.808  0.00  0.00     0.006 C 
ATOM      8  C11 <0> d           4.468  -5.168  -4.950  0.00  0.00    -0.017 A 
ATOM      9  C12 <0> d           5.115  -5.932  -3.984  0.00  0.00     0.014 A 
ATOM     10  C13 <0> d           5.207  -7.300  -4.162  0.00  0.00     0.024 A 
ATOM     11  C14 <0> d           4.657  -7.889  -5.288  0.00  0.00     0.034 A 
ATOM     12 Cl15 <0> d           4.771  -9.608  -5.503  0.00  0.00    -0.084 Cl
ATOM     13  C16 <0> d           4.018  -7.119  -6.246  0.00  0.00     0.031 A 
ATOM     14  C17 <0> d           3.929  -5.748  -6.072  0.00  0.00    -0.045 A 
ATOM     15  C18 <0> d           3.261  -4.902  -7.112  0.00  0.00     0.044 C 
ATOM     16  C19 <0> d           4.230  -4.074  -7.912  0.00  0.00     0.045 C 
ATOM     17  C20 <0> d           4.911  -2.970  -7.149  0.00  0.00    -0.028 A 
ATOM     18  C21 <0> d           5.586  -2.044  -7.955  0.00  0.00     0.011 A 
ATOM     19  C22 <0> d           6.234  -0.971  -7.377  0.00  0.00     0.020 A 
ATOM     20  C23 <0> d           6.201  -0.827  -6.002  0.00  0.00     0.117 A 
ATOM     21  N24 <0> d           5.569  -1.709  -5.264  0.00  0.00    -0.260 NA
ATOM     22  C25 <0> d           4.936  -2.771  -5.786  0.00  0.00     0.074 A 
ATOM     23  C26 <0> d           3.004  -4.125  -2.755  0.00  0.00     0.055 C 
ATOM     24  C27 <0> d           1.525  -3.758  -2.625  0.00  0.00     0.132 C 
ENDROOT
BRANCH   1  25
ATOM     25  O3  <0> d           0.682  -0.472  -1.193  0.00  0.00    -0.304 OA
BRANCH  25  26
ATOM     26  C2  <0> d           0.002  -0.004   0.002  0.00  0.00     0.176 C 
ATOM     27  C1  <0> d          -0.019   1.526   0.010  0.00  0.00     0.034 C 
ENDBRANCH  25  26
ENDBRANCH   1  25
TORSDOF 2
