REMARK  7 active torsions:
REMARK  status: ('A' for Active; 'I' for Inactive)
REMARK    1  A    between atoms: O2_2  and  C3_3 
REMARK    2  A    between atoms: C8_8  and  O9_9 
REMARK    3  A    between atoms: O9_9  and  C10_10 
REMARK    4  A    between atoms: C10_10  and  C11_11 
REMARK    5  A    between atoms: C11_11  and  O13_12 
REMARK    6  A    between atoms: C11_11  and  C14_13 
REMARK    7  A    between atoms: C14_13  and  O15_14 
ROOT
ATOM      1  C3  ZIN AC000      -1.201  -0.638   0.010  0.00  0.00     0.101 A 
ATOM      2  C4  ZIN AC000      -2.374   0.099   0.019  0.00  0.00     0.039 A 
ATOM      3  C5  ZIN AC000      -3.596  -0.547   0.027  0.00  0.00     0.003 A 
ATOM      4  C6  ZIN AC000      -3.652  -1.928   0.026  0.00  0.00     0.003 A 
ATOM      5  C7  ZIN AC000      -2.485  -2.670   0.017  0.00  0.00     0.039 A 
ATOM      6  C8  ZIN AC000      -1.257  -2.029   0.003  0.00  0.00     0.102 A 
ENDROOT
BRANCH   6   7
ATOM      7  O9  ZIN AC000      -0.108  -2.757  -0.006  0.00  0.00    -0.346 OA
BRANCH   7   8
ATOM      8  C10 ZIN AC000      -0.242  -4.179   0.000  0.00  0.00     0.209 C 
BRANCH   8   9
ATOM      9  C11 ZIN AC000       1.147  -4.822  -0.011  0.00  0.00     0.166 C 
BRANCH   9  10
ATOM     10  O13 ZIN AC000       1.806  -4.510  -1.240  0.00  0.00    -0.391 OA
ATOM     11  H25 ZIN AC000       1.340  -4.823  -2.027  0.00  0.00     0.210 HD
ENDBRANCH   9  10
BRANCH   9  12
ATOM     12  C14 ZIN AC000       1.007  -6.340   0.121  0.00  0.00     0.198 C 
BRANCH  12  13
ATOM     13  O15 ZIN AC000       2.304  -6.930   0.228  0.00  0.00    -0.398 OA
ATOM     14  H28 ZIN AC000       2.292  -7.893   0.315  0.00  0.00     0.209 HD
ENDBRANCH  12  13
ENDBRANCH   9  12
ENDBRANCH   8   9
ENDBRANCH   7   8
ENDBRANCH   6   7
BRANCH   1  15
ATOM     15  O2  ZIN AC000       0.002  -0.004   0.002  0.00  0.00    -0.353 OA
ATOM     16  C1  ZIN AC000      -0.017   1.425   0.010  0.00  0.00     0.210 C 
ENDBRANCH   1  15
TORSDOF 7
