REMARK  1 active torsions:
REMARK  status: ('A' for Active; 'I' for Inactive)
REMARK    1  A    between atoms: N2_2  and  C5_5 
ROOT
ATOM      1  C5  <0> d           0.861  -0.432  -1.274  0.00  0.00     0.132 C 
ATOM      2  C6  <0> d           0.286   0.141  -2.571  0.00  0.00     0.047 C 
ATOM      3  C7  <0> d           2.323   0.065  -1.058  0.00  0.00     0.022 C 
ATOM      4  C9  <0> d           3.022  -0.172  -2.432  0.00  0.00     0.007 C 
ATOM      5  C10 <0> d           3.144  -1.708  -2.549  0.00  0.00     0.006 C 
ATOM      6  C11 <0> d           2.507  -2.256  -1.235  0.00  0.00    -0.004 C 
ATOM      7  C13 <0> d           2.908  -1.116  -0.205  0.00  0.00     0.012 C 
ATOM      8  C14 <0> d           0.980  -1.970  -1.370  0.00  0.00    -0.011 C 
ATOM      9  C15 <0> d           0.207  -2.659  -0.244  0.00  0.00     0.018 C 
ATOM     10  C16 <0> d           0.469  -2.438  -2.734  0.00  0.00     0.018 C 
ENDROOT
BRANCH   1  11
ATOM     11  N2  <0> d           0.018  -0.054  -0.131  0.00  0.00    -0.069 N 
ATOM     12  C1  <0> d          -0.082   1.410  -0.059  0.00  0.00     0.267 C 
ATOM     13  H3  <0> d           0.429  -0.406   0.721  0.00  0.00     0.277 HD
ATOM     14  H4  <0> d          -0.903  -0.449  -0.248  0.00  0.00     0.277 HD
ENDBRANCH   1  11
TORSDOF 1
