REMARK  12 active torsions:
REMARK  status: ('A' for Active; 'I' for Inactive)
REMARK    1  A    between atoms: C2_2  and  C4_4 
REMARK    2  A    between atoms: C4_4  and  O6_6 
REMARK    3  A    between atoms: O6_6  and  C7_7 
REMARK    4  A    between atoms: C10_10  and  C11_11 
REMARK    5  A    between atoms: C11_11  and  O12_12 
REMARK    6  A    between atoms: C14_14  and  C15_15 
REMARK    7  A    between atoms: C15_15  and  C17_16 
REMARK    8  A    between atoms: C15_15  and  C27_26 
REMARK    9  A    between atoms: C17_16  and  C18_17 
REMARK   10  A    between atoms: C18_17  and  N19_18 
REMARK   11  A    between atoms: N19_18  and  C21_20 
REMARK   12  A    between atoms: N19_18  and  C24_23 
ROOT
ATOM      1  C15 ZIN AC000      -5.421  -0.333  -2.623  0.00  0.00     0.056 C 
ENDROOT
BRANCH   1   2
ATOM      2  C14 ZIN AC000      -5.714  -0.851  -1.239  0.00  0.00    -0.015 A 
ATOM      3  C7  ZIN AC000      -4.671  -1.188  -0.388  0.00  0.00     0.086 A 
ATOM      4  C8  ZIN AC000      -4.944  -1.664   0.886  0.00  0.00     0.038 A 
ATOM      5  C9  ZIN AC000      -6.254  -1.806   1.303  0.00  0.00     0.012 A 
ATOM      6  C10 ZIN AC000      -7.292  -1.475   0.451  0.00  0.00    -0.034 A 
ATOM      7  C13 ZIN AC000      -7.022  -1.000  -0.819  0.00  0.00     0.020 A 
BRANCH   3   8
ATOM      8  O6  ZIN AC000      -3.384  -1.047  -0.800  0.00  0.00    -0.278 OA
BRANCH   8   9
ATOM      9  C4  ZIN AC000      -2.817   0.158  -0.628  0.00  0.00     0.267 C 
ATOM     10  O5  ZIN AC000      -3.476   1.081  -0.210  0.00  0.00    -0.264 OA
BRANCH   9  11
ATOM     11  C2  ZIN AC000      -1.360   0.359  -0.955  0.00  0.00     0.078 C 
ATOM     12  C1  ZIN AC000      -1.121   0.047  -2.433  0.00  0.00     0.020 C 
ATOM     13  C3  ZIN AC000      -0.969   1.811  -0.670  0.00  0.00     0.020 C 
ENDBRANCH   9  11
ENDBRANCH   8   9
ENDBRANCH   3   8
BRANCH   6  14
ATOM     14  C11 ZIN AC000      -8.719  -1.632   0.909  0.00  0.00     0.202 C 
BRANCH  14  15
ATOM     15  O12 ZIN AC000      -9.156  -0.420   1.527  0.00  0.00    -0.396 OA
ATOM     16  H44 ZIN AC000     -10.069  -0.449   1.847  0.00  0.00     0.209 HD
ENDBRANCH  14  15
ENDBRANCH   6  14
ENDBRANCH   1   2
BRANCH   1  17
ATOM     17  C17 ZIN AC000      -6.131   1.007  -2.827  0.00  0.00     0.042 C 
BRANCH  17  18
ATOM     18  C18 ZIN AC000      -5.734   1.593  -4.184  0.00  0.00     0.237 C 
BRANCH  18  19
ATOM     19  N19 ZIN AC000      -6.328   2.929  -4.332  0.00  0.00    -0.064 N 
ATOM     20  H20 ZIN AC000      -7.326   2.870  -4.201  0.00  0.00     0.280 HD
BRANCH  19  21
ATOM     21  C21 ZIN AC000      -5.754   3.834  -3.328  0.00  0.00     0.180 C 
ATOM     22  C22 ZIN AC000      -4.444   4.420  -3.858  0.00  0.00     0.039 C 
ATOM     23  C23 ZIN AC000      -6.740   4.968  -3.040  0.00  0.00     0.039 C 
ENDBRANCH  19  21
BRANCH  19  24
ATOM     24  C24 ZIN AC000      -6.041   3.445  -5.678  0.00  0.00     0.180 C 
ATOM     25  C25 ZIN AC000      -6.532   2.443  -6.724  0.00  0.00     0.039 C 
ATOM     26  C26 ZIN AC000      -6.759   4.781  -5.875  0.00  0.00     0.039 C 
ENDBRANCH  19  24
ENDBRANCH  18  19
ENDBRANCH  17  18
ENDBRANCH   1  17
BRANCH   1  27
ATOM     27  C27 ZIN AC000      -5.915  -1.324  -3.645  0.00  0.00    -0.050 A 
ATOM     28  C32 ZIN AC000      -5.011  -2.019  -4.426  0.00  0.00     0.008 A 
ATOM     29  C31 ZIN AC000      -5.463  -2.932  -5.361  0.00  0.00     0.001 A 
ATOM     30  C30 ZIN AC000      -6.820  -3.142  -5.521  0.00  0.00     0.000 A 
ATOM     31  C29 ZIN AC000      -7.724  -2.442  -4.744  0.00  0.00     0.001 A 
ATOM     32  C28 ZIN AC000      -7.271  -1.533  -3.806  0.00  0.00     0.008 A 
ENDBRANCH   1  27
TORSDOF 12
