REMARK  8 active torsions:
REMARK  status: ('A' for Active; 'I' for Inactive)
REMARK    1  A    between atoms: C2_2  and  O4_4 
REMARK    2  A    between atoms: O4_4  and  C5_5 
REMARK    3  A    between atoms: C5_5  and  C6_6 
REMARK    4  A    between atoms: C9_8  and  N11_9 
REMARK    5  A    between atoms: C19_17  and  O21_18 
REMARK    6  A    between atoms: O21_18  and  C22_19 
REMARK    7  A    between atoms: C25_22  and  O27_23 
REMARK    8  A    between atoms: O27_23  and  C28_24 
ROOT
ATOM      1  C6  ZIN AC000      -2.461  -2.744   0.011  0.00  0.00     0.180 C 
ATOM      2  O8  ZIN AC000      -3.136  -2.469  -1.236  0.00  0.00    -0.353 OA
ATOM      3  C9  ZIN AC000      -4.187  -3.455  -1.326  0.00  0.00     0.264 C 
ATOM      4  C19 ZIN AC000      -3.545  -4.763  -0.814  0.00  0.00     0.213 C 
ATOM      5  C25 ZIN AC000      -2.384  -4.285   0.089  0.00  0.00     0.197 C 
ENDROOT
BRANCH   3   6
ATOM      6  N11 ZIN AC000      -4.625  -3.609  -2.716  0.00  0.00    -0.280 N 
ATOM      7  C17 ZIN AC000      -5.929  -3.484  -3.021  0.00  0.00     0.331 A 
ATOM      8  N16 ZIN AC000      -6.358  -3.615  -4.290  0.00  0.00    -0.275 N 
ATOM      9  O18 ZIN AC000      -6.730  -3.240  -2.140  0.00  0.00    -0.246 OA
ATOM     10  C14 ZIN AC000      -5.482  -3.887  -5.279  0.00  0.00     0.250 A 
ATOM     11  H38 ZIN AC000      -7.301  -3.519  -4.494  0.00  0.00     0.173 HD
ATOM     12  C13 ZIN AC000      -4.107  -4.026  -4.970  0.00  0.00     0.092 A 
ATOM     13  O15 ZIN AC000      -5.870  -4.011  -6.426  0.00  0.00    -0.268 OA
ATOM     14  C12 ZIN AC000      -3.704  -3.884  -3.690  0.00  0.00     0.104 A 
ENDBRANCH   3   6
BRANCH   4  15
ATOM     15  O21 ZIN AC000      -4.505  -5.533  -0.043  0.00  0.00    -0.309 OA
BRANCH  15  16
ATOM     16  C22 ZIN AC000      -5.237  -6.439  -0.711  0.00  0.00     0.255 C 
ATOM     17  C23 ZIN AC000      -6.254  -7.275   0.022  0.00  0.00     0.126 C 
ATOM     18  O24 ZIN AC000      -5.080  -6.584  -1.901  0.00  0.00    -0.266 OA
ENDBRANCH  15  16
ENDBRANCH   4  15
BRANCH   1  19
ATOM     19  C5  ZIN AC000      -1.056  -2.140   0.001  0.00  0.00     0.213 C 
BRANCH  19  20
ATOM     20  O4  ZIN AC000      -1.151  -0.691   0.009  0.00  0.00    -0.319 OA
BRANCH  20  21
ATOM     21  C2  ZIN AC000       0.002  -0.004   0.002  0.00  0.00     0.254 C 
ATOM     22  C1  ZIN AC000      -0.018   1.503   0.010  0.00  0.00     0.126 C 
ATOM     23  O3  ZIN AC000       1.056  -0.594  -0.011  0.00  0.00    -0.266 OA
ENDBRANCH  20  21
ENDBRANCH  19  20
ENDBRANCH   1  19
BRANCH   5  24
ATOM     24  O27 ZIN AC000      -2.578  -4.742   1.453  0.00  0.00    -0.311 OA
BRANCH  24  25
ATOM     25  C28 ZIN AC000      -1.475  -4.970   2.183  0.00  0.00     0.255 C 
ATOM     26  C29 ZIN AC000      -1.598  -5.446   3.607  0.00  0.00     0.126 C 
ATOM     27  O30 ZIN AC000      -0.383  -4.793   1.697  0.00  0.00    -0.266 OA
ENDBRANCH  24  25
ENDBRANCH   5  24
TORSDOF 8
