REMARK  2 active torsions:
REMARK  status: ('A' for Active; 'I' for Inactive)
REMARK    1  A    between atoms: N1_1  and  C2_2 
REMARK    2  A    between atoms: N10_10  and  C11_11 
ROOT
ATOM      1  C2  ZIN AC000       0.005  -0.264   0.799  0.00  0.00     0.042 A 
ATOM      2  C3  ZIN AC000      -1.193  -0.856   0.395  0.00  0.00     0.030 A 
ATOM      3  C4  ZIN AC000      -1.180  -1.984  -0.397  0.00  0.00     0.003 A 
ATOM      4  C5  ZIN AC000       0.021  -2.548  -0.805  0.00  0.00     0.018 A 
ATOM      5  C6  ZIN AC000       1.220  -1.976  -0.416  0.00  0.00     0.050 A 
ATOM      6  C7  ZIN AC000       1.217  -0.818   0.391  0.00  0.00     0.074 A 
ATOM      7  C8  ZIN AC000       2.632  -0.479   0.617  0.00  0.00     0.264 A 
ATOM      8  O9  ZIN AC000       3.040   0.462   1.269  0.00  0.00    -0.267 OA
ATOM      9  N10 ZIN AC000       3.398  -1.383  -0.018  0.00  0.00    -0.266 N 
ATOM     10  C20 ZIN AC000       2.643  -2.296  -0.655  0.00  0.00     0.262 A 
ATOM     11  O21 ZIN AC000       3.059  -3.231  -1.310  0.00  0.00    -0.267 OA
ENDROOT
BRANCH   9  12
ATOM     12  C11 ZIN AC000       4.864  -1.373  -0.020  0.00  0.00     0.189 C 
ATOM     13  C18 ZIN AC000       5.377  -2.768   0.224  0.00  0.00     0.247 C 
ATOM     14  N17 ZIN AC000       5.629  -3.604  -0.796  0.00  0.00    -0.296 N 
ATOM     15  O19 ZIN AC000       5.566  -3.144   1.361  0.00  0.00    -0.271 OA
ATOM     16  C15 ZIN AC000       5.454  -3.253  -2.079  0.00  0.00     0.224 C 
ATOM     17  H31 ZIN AC000       5.951  -4.497  -0.598  0.00  0.00     0.171 HD
ATOM     18  C14 ZIN AC000       4.945  -1.886  -2.454  0.00  0.00     0.106 C 
ATOM     19  O16 ZIN AC000       5.710  -4.052  -2.954  0.00  0.00    -0.273 OA
ATOM     20  C13 ZIN AC000       5.370  -0.880  -1.379  0.00  0.00     0.045 C 
ENDBRANCH   9  12
BRANCH   1  21
ATOM     21  N1  ZIN AC000      -0.011   0.871   1.597  0.00  0.00    -0.398 N 
ATOM     22  H22 ZIN AC000       0.823   1.282   1.872  0.00  0.00     0.156 HD
ATOM     23  H23 ZIN AC000      -0.857   1.256   1.876  0.00  0.00     0.156 HD
ENDBRANCH   1  21
TORSDOF 2
