REMARK  9 active torsions:
REMARK  status: ('A' for Active; 'I' for Inactive)
REMARK    1  A    between atoms: C2_2  and  O4_3 
REMARK    2  A    between atoms: C2_2  and  C31_28 
REMARK    3  A    between atoms: O4_3  and  C5_4 
REMARK    4  A    between atoms: N10_8  and  C11_9 
REMARK    5  A    between atoms: C11_9  and  C12_10 
REMARK    6  A    between atoms: N14_12  and  P15_13 
REMARK    7  A    between atoms: C22_20  and  C24_21 
REMARK    8  A    between atoms: C33_30  and  C34_31 
REMARK    9  A    between atoms: C39_36  and  C40_37 
ROOT
ATOM      1  C5  ZIN AC000       2.099  -0.651   0.967  0.00  0.00     0.298 C 
ATOM      2  O7  ZIN AC000       2.725   0.628   0.839  0.00  0.00    -0.357 OA
ATOM      3  C8  ZIN AC000       2.578   1.460   1.993  0.00  0.00     0.201 C 
ATOM      4  C9  ZIN AC000       3.177   0.747   3.208  0.00  0.00     0.300 C 
ATOM      5  N10 ZIN AC000       2.522  -0.559   3.376  0.00  0.00     0.111 N 
ATOM      6  C22 ZIN AC000       2.692  -1.386   2.172  0.00  0.00     0.311 C 
ENDROOT
BRANCH   1   7
ATOM      7  O4  ZIN AC000       0.693  -0.477   1.160  0.00  0.00    -0.349 OA
BRANCH   7   8
ATOM      8  C2  ZIN AC000       0.002  -0.004   0.002  0.00  0.00     0.153 C 
ATOM      9  C1  ZIN AC000      -0.019   1.526   0.010  0.00  0.00     0.045 C 
BRANCH   8  10
ATOM     10  C31 ZIN AC000      -1.412  -0.526   0.013  0.00  0.00    -0.028 A 
ATOM     11  C44 ZIN AC000      -2.000  -0.954  -1.163  0.00  0.00     0.025 A 
ATOM     12  C39 ZIN AC000      -3.295  -1.436  -1.153  0.00  0.00     0.049 A 
ATOM     13  C38 ZIN AC000      -4.006  -1.482   0.032  0.00  0.00     0.032 A 
ATOM     14  C33 ZIN AC000      -3.420  -1.049   1.207  0.00  0.00     0.049 A 
ATOM     15  C32 ZIN AC000      -2.123  -0.571   1.197  0.00  0.00     0.025 A 
BRANCH  12  16
ATOM     16  C40 ZIN AC000      -3.934  -1.908  -2.433  0.00  0.00     0.417 C 
ATOM     17  F41 ZIN AC000      -5.237  -2.343  -2.171  0.00  0.00    -0.166 F 
ATOM     18  F42 ZIN AC000      -3.969  -0.854  -3.353  0.00  0.00    -0.166 F 
ATOM     19  F43 ZIN AC000      -3.187  -2.965  -2.965  0.00  0.00    -0.166 F 
ENDBRANCH  12  16
BRANCH  14  20
ATOM     20  C34 ZIN AC000      -4.195  -1.099   2.499  0.00  0.00     0.417 C 
ATOM     21  F35 ZIN AC000      -4.886   0.104   2.674  0.00  0.00    -0.166 F 
ATOM     22  F36 ZIN AC000      -5.107  -2.159   2.454  0.00  0.00    -0.166 F 
ATOM     23  F37 ZIN AC000      -3.311  -1.289   3.566  0.00  0.00    -0.166 F 
ENDBRANCH  14  20
ENDBRANCH   8  10
ENDBRANCH   7   8
ENDBRANCH   1   7
BRANCH   6  24
ATOM     24  C24 ZIN AC000       1.983  -2.702   2.361  0.00  0.00    -0.020 A 
ATOM     25  C30 ZIN AC000       2.565  -3.872   1.909  0.00  0.00     0.012 A 
ATOM     26  C29 ZIN AC000       1.917  -5.080   2.086  0.00  0.00     0.043 A 
ATOM     27  C27 ZIN AC000       0.680  -5.117   2.708  0.00  0.00     0.116 A 
ATOM     28  C26 ZIN AC000       0.096  -3.944   3.155  0.00  0.00     0.043 A 
ATOM     29  F28 ZIN AC000       0.044  -6.296   2.877  0.00  0.00    -0.206 F 
ATOM     30  C25 ZIN AC000       0.748  -2.738   2.981  0.00  0.00     0.012 A 
ENDBRANCH   6  24
BRANCH   5  31
ATOM     31  C11 ZIN AC000       3.029  -1.253   4.567  0.00  0.00     0.353 C 
BRANCH  31  32
ATOM     32  C12 ZIN AC000       4.481  -1.603   4.365  0.00  0.00     0.157 A 
ATOM     33  N21 ZIN AC000       5.280  -2.256   5.271  0.00  0.00    -0.292 N 
ATOM     34  C19 ZIN AC000       6.509  -2.391   4.734  0.00  0.00     0.355 A 
ATOM     35  H54 ZIN AC000       5.005  -2.573   6.146  0.00  0.00     0.172 HD
ATOM     36  N14 ZIN AC000       6.479  -1.820   3.511  0.00  0.00    -0.103 N 
ATOM     37  O20 ZIN AC000       7.470  -2.925   5.257  0.00  0.00    -0.244 OA
ATOM     38  N13 ZIN AC000       5.181  -1.332   3.311  0.00  0.00    -0.142 NA
BRANCH  36  39
ATOM     39  P15 ZIN AC000       7.731  -1.717   2.457  0.00  0.00     0.404 P 
ATOM     40  O16 ZIN AC000       7.179  -1.718   0.990  0.00  0.00    -0.621 OA
ATOM     41  O17 ZIN AC000       8.524  -0.391   2.715  0.00  0.00    -0.621 OA
ATOM     42  O18 ZIN AC000       8.685  -2.943   2.657  0.00  0.00    -0.621 OA
ENDBRANCH  36  39
ENDBRANCH  31  32
ENDBRANCH   5  31
TORSDOF 9
