REMARK  1 active torsions:
REMARK  status: ('A' for Active; 'I' for Inactive)
REMARK    1  A    between atoms: C3_3  and  O4_4 
ROOT
ATOM      1  C1  ZIN AC000      -0.018   1.503   0.010  0.00  0.00     0.071 C 
ATOM      2  C2  ZIN AC000       0.002  -0.004   0.002  0.00  0.00     0.044 A 
ATOM      3  C3  ZIN AC000       0.006  -0.668  -1.178  0.00  0.00     0.138 A 
ATOM      4  C5  ZIN AC000       0.025  -2.086  -1.173  0.00  0.00     0.208 A 
ATOM      5  O6  ZIN AC000       0.029  -2.714  -2.222  0.00  0.00    -0.285 OA
ATOM      6  C7  ZIN AC000       0.041  -2.759   0.070  0.00  0.00     0.075 A 
ATOM      7  C8  ZIN AC000       0.036  -2.038   1.213  0.00  0.00     0.094 A 
ATOM      8  N9  ZIN AC000       0.022  -0.683   1.179  0.00  0.00    -0.362 N 
ATOM      9  C10 ZIN AC000       0.018   0.065   2.438  0.00  0.00     0.155 C 
ENDROOT
BRANCH   3  10
ATOM     10  O4  ZIN AC000      -0.009   0.016  -2.354  0.00  0.00    -0.355 OA
ATOM     11  H14 ZIN AC000      -0.005  -0.550  -3.139  0.00  0.00     0.218 HD
ENDBRANCH   3  10
TORSDOF 1
