REMARK WARNING: 32 MAX_TORS EXCEEDED!!!
REMARK  36 active torsions:
REMARK  status: ('A' for Active; 'I' for Inactive)
REMARK    1  A    between atoms: C2_2  and  C3_3 
REMARK    2  A    between atoms: C3_3  and  C4_4 
REMARK    3  A    between atoms: C4_4  and  C5_5 
REMARK    4  A    between atoms: C5_5  and  C6_6 
REMARK    5  A    between atoms: C6_6  and  C7_7 
REMARK    6  A    between atoms: C7_7  and  C8_8 
REMARK    7  A    between atoms: C8_8  and  C9_9 
REMARK    8  A    between atoms: C9_9  and  C10_10 
REMARK    9  A    between atoms: C13_13  and  O14_14 
REMARK   10  A    between atoms: O14_14  and  C15_15 
REMARK   11  A    between atoms: C15_15  and  C16_16 
REMARK   12  A    between atoms: C16_16  and  O17_17 
REMARK   13  A    between atoms: O17_17  and  C18_18 
REMARK   14  A    between atoms: C18_18  and  C19_19 
REMARK   15  A    between atoms: C19_19  and  O20_20 
REMARK   16  A    between atoms: O20_20  and  C21_21 
REMARK   17  A    between atoms: C21_21  and  C22_22 
REMARK   18  A    between atoms: C22_22  and  O23_23 
REMARK   19  A    between atoms: O23_23  and  C24_24 
REMARK   20  A    between atoms: C24_24  and  C25_25 
REMARK   21  A    between atoms: C25_25  and  O26_26 
REMARK   22  A    between atoms: O26_26  and  C27_27 
REMARK   23  A    between atoms: C27_27  and  C28_28 
REMARK   24  A    between atoms: C28_28  and  O29_29 
REMARK   25  A    between atoms: O29_29  and  C30_30 
REMARK   26  A    between atoms: C30_30  and  C31_31 
REMARK   27  A    between atoms: C31_31  and  O32_32 
REMARK   28  A    between atoms: O32_32  and  C33_33 
REMARK   29  A    between atoms: C33_33  and  C34_34 
REMARK   30  A    between atoms: C34_34  and  O35_35 
REMARK   31  A    between atoms: O35_35  and  C36_36 
REMARK   32  A    between atoms: C36_36  and  C37_37 
REMARK   33  A    between atoms: C37_37  and  O38_38 
REMARK   34  A    between atoms: O38_38  and  C39_39 
REMARK   35  A    between atoms: C39_39  and  C40_40 
REMARK   36  A    between atoms: C40_40  and  O41_41 
ROOT
ATOM      1  O20 ZIN AC000       0.828 -16.210  -2.089  0.00  0.00    -0.387 OA
ENDROOT
BRANCH   1   2
ATOM      2  C19 ZIN AC000       2.141 -16.503  -2.571  0.00  0.00     0.193 C 
BRANCH   2   3
ATOM      3  C18 ZIN AC000       2.218 -16.185  -4.065  0.00  0.00     0.193 C 
BRANCH   3   4
ATOM      4  O17 ZIN AC000       2.047 -14.780  -4.263  0.00  0.00    -0.387 OA
BRANCH   4   5
ATOM      5  C16 ZIN AC000       2.102 -14.374  -5.632  0.00  0.00     0.194 C 
BRANCH   5   6
ATOM      6  C15 ZIN AC000       1.908 -12.859  -5.723  0.00  0.00     0.201 C 
BRANCH   6   7
ATOM      7  O14 ZIN AC000       3.005 -12.199  -5.089  0.00  0.00    -0.349 OA
BRANCH   7   8
ATOM      8  C13 ZIN AC000       2.987 -10.840  -5.082  0.00  0.00     0.068 A 
ATOM      9  C12 ZIN AC000       4.020 -10.135  -4.483  0.00  0.00     0.037 A 
ATOM     10  C11 ZIN AC000       3.999  -8.753  -4.476  0.00  0.00     0.010 A 
ATOM     11  C10 ZIN AC000       2.949  -8.074  -5.067  0.00  0.00    -0.058 A 
ATOM     12  C43 ZIN AC000       1.915  -8.775  -5.660  0.00  0.00     0.010 A 
ATOM     13  C42 ZIN AC000       1.934 -10.156  -5.673  0.00  0.00     0.037 A 
BRANCH  11  14
ATOM     14  C9  ZIN AC000       2.929  -6.567  -5.058  0.00  0.00     0.038 C 
BRANCH  14  15
ATOM     15  C8  ZIN AC000       2.213  -6.074  -3.800  0.00  0.00     0.005 C 
BRANCH  15  16
ATOM     16  C7  ZIN AC000       2.192  -4.544  -3.791  0.00  0.00     0.000 C 
BRANCH  16  17
ATOM     17  C6  ZIN AC000       1.476  -4.051  -2.532  0.00  0.00     0.000 C 
BRANCH  17  18
ATOM     18  C5  ZIN AC000       1.455  -2.521  -2.524  0.00  0.00     0.000 C 
BRANCH  18  19
ATOM     19  C4  ZIN AC000       0.739  -2.027  -1.265  0.00  0.00     0.000 C 
BRANCH  19  20
ATOM     20  C3  ZIN AC000       0.718  -0.497  -1.257  0.00  0.00    -0.000 C 
BRANCH  20  21
ATOM     21  C2  ZIN AC000       0.002  -0.004   0.002  0.00  0.00    -0.005 C 
ATOM     22  C1  ZIN AC000      -0.019   1.526   0.010  0.00  0.00     0.005 C 
ENDBRANCH  20  21
ENDBRANCH  19  20
ENDBRANCH  18  19
ENDBRANCH  17  18
ENDBRANCH  16  17
ENDBRANCH  15  16
ENDBRANCH  14  15
ENDBRANCH  11  14
ENDBRANCH   7   8
ENDBRANCH   6   7
ENDBRANCH   5   6
ENDBRANCH   4   5
ENDBRANCH   3   4
ENDBRANCH   2   3
ENDBRANCH   1   2
BRANCH   1  23
ATOM     23  C21 ZIN AC000       0.648 -16.474  -0.696  0.00  0.00     0.193 C 
BRANCH  23  24
ATOM     24  C22 ZIN AC000      -0.787 -16.127  -0.292  0.00  0.00     0.193 C 
BRANCH  24  25
ATOM     25  O23 ZIN AC000      -1.695 -17.002  -0.963  0.00  0.00    -0.387 OA
BRANCH  25  26
ATOM     26  C24 ZIN AC000      -3.070 -16.761  -0.654  0.00  0.00     0.193 C 
BRANCH  26  27
ATOM     27  C25 ZIN AC000      -3.947 -17.751  -1.423  0.00  0.00     0.193 C 
BRANCH  27  28
ATOM     28  O26 ZIN AC000      -3.683 -19.078  -0.964  0.00  0.00    -0.387 OA
BRANCH  28  29
ATOM     29  C27 ZIN AC000      -4.454 -20.085  -1.622  0.00  0.00     0.193 C 
BRANCH  29  30
ATOM     30  C28 ZIN AC000      -4.092 -21.458  -1.054  0.00  0.00     0.193 C 
BRANCH  30  31
ATOM     31  O29 ZIN AC000      -4.479 -21.523   0.320  0.00  0.00    -0.387 OA
BRANCH  31  32
ATOM     32  C30 ZIN AC000      -4.183 -22.771   0.949  0.00  0.00     0.193 C 
BRANCH  32  33
ATOM     33  C31 ZIN AC000      -4.639 -22.727   2.409  0.00  0.00     0.193 C 
BRANCH  33  34
ATOM     34  O32 ZIN AC000      -6.062 -22.606   2.461  0.00  0.00    -0.387 OA
BRANCH  34  35
ATOM     35  C33 ZIN AC000      -6.593 -22.555   3.786  0.00  0.00     0.193 C 
BRANCH  35  36
ATOM     36  C34 ZIN AC000      -8.117 -22.426   3.720  0.00  0.00     0.193 C 
BRANCH  36  37
ATOM     37  O35 ZIN AC000      -8.670 -23.606   3.135  0.00  0.00    -0.387 OA
BRANCH  37  38
ATOM     38  C36 ZIN AC000     -10.095 -23.588   3.027  0.00  0.00     0.193 C 
BRANCH  38  39
ATOM     39  C37 ZIN AC000     -10.575 -24.894   2.390  0.00  0.00     0.193 C 
BRANCH  39  40
ATOM     40  O38 ZIN AC000     -10.276 -25.986   3.262  0.00  0.00    -0.387 OA
BRANCH  40  41
ATOM     41  C39 ZIN AC000     -10.685 -27.260   2.759  0.00  0.00     0.193 C 
BRANCH  41  42
ATOM     42  C40 ZIN AC000     -10.317 -28.349   3.769  0.00  0.00     0.190 C 
BRANCH  42  43
ATOM     43  O41 ZIN AC000     -11.068 -28.158   4.970  0.00  0.00    -0.399 OA
ATOM     44 1H10 ZIN AC000     -10.885 -28.814   5.657  0.00  0.00     0.209 HD
ENDBRANCH  42  43
ENDBRANCH  41  42
ENDBRANCH  40  41
ENDBRANCH  39  40
ENDBRANCH  38  39
ENDBRANCH  37  38
ENDBRANCH  36  37
ENDBRANCH  35  36
ENDBRANCH  34  35
ENDBRANCH  33  34
ENDBRANCH  32  33
ENDBRANCH  31  32
ENDBRANCH  30  31
ENDBRANCH  29  30
ENDBRANCH  28  29
ENDBRANCH  27  28
ENDBRANCH  26  27
ENDBRANCH  25  26
ENDBRANCH  24  25
ENDBRANCH  23  24
ENDBRANCH   1  23
TORSDOF 36
