REMARK  9 active torsions:
REMARK  status: ('A' for Active; 'I' for Inactive)
REMARK    1  A    between atoms: C2_2  and  O4_4 
REMARK    2  A    between atoms: C2_2  and  C5_5 
REMARK    3  A    between atoms: C5_5  and  N6_6 
REMARK    4  A    between atoms: N6_6  and  C7_7 
REMARK    5  A    between atoms: C9_9  and  N10_10 
REMARK    6  A    between atoms: N10_10  and  C11_11 
REMARK    7  A    between atoms: C15_15  and  C16_16 
REMARK    8  A    between atoms: C22_22  and  C23_23 
REMARK    9  A    between atoms: C27_27  and  C28_28 
ROOT
ATOM      1  C7  ZIN AC000       1.230  -2.650  -2.374  0.00  0.00     0.740 A 
ATOM      2  N8  ZIN AC000       1.766  -1.975  -3.385  0.00  0.00     0.130 NA
ATOM      3  C9  ZIN AC000       2.499  -2.610  -4.294  0.00  0.00     0.745 A 
ATOM      4  N21 ZIN AC000       2.696  -3.920  -4.192  0.00  0.00    -0.039 NA
ATOM      5  C22 ZIN AC000       2.160  -4.596  -3.180  0.00  0.00     0.216 A 
ATOM      6  N33 ZIN AC000       1.431  -3.960  -2.269  0.00  0.00    -0.040 NA
ENDROOT
BRANCH   3   7
ATOM      7  N10 ZIN AC000       3.056  -1.907  -5.346  0.00  0.00    -0.188 N 
ATOM      8  H44 ZIN AC000       3.520  -2.381  -6.054  0.00  0.00     0.184 HD
BRANCH   7   9
ATOM      9  C11 ZIN AC000       2.951  -0.518  -5.390  0.00  0.00     0.052 A 
ATOM     10  C20 ZIN AC000       2.839   0.153  -6.607  0.00  0.00     0.066 A 
ATOM     11  C15 ZIN AC000       2.733   1.528  -6.606  0.00  0.00     0.142 A 
ATOM     12  N14 ZIN AC000       2.747   2.208  -5.475  0.00  0.00    -0.256 NA
ATOM     13  C13 ZIN AC000       2.857   1.610  -4.304  0.00  0.00     0.119 A 
ATOM     14  C12 ZIN AC000       2.962   0.237  -4.218  0.00  0.00     0.049 A 
BRANCH  11  15
ATOM     15  C16 ZIN AC000       2.605   2.265  -7.915  0.00  0.00     0.434 C 
ATOM     16  F17 ZIN AC000       2.633   3.644  -7.679  0.00  0.00    -0.165 F 
ATOM     17  F18 ZIN AC000       3.669   1.914  -8.753  0.00  0.00    -0.165 F 
ATOM     18  F19 ZIN AC000       1.396   1.921  -8.528  0.00  0.00    -0.165 F 
ENDBRANCH  11  15
ENDBRANCH   7   9
ENDBRANCH   3   7
BRANCH   1  19
ATOM     19  N6  ZIN AC000       0.470  -1.990  -1.430  0.00  0.00    -0.219 N 
ATOM     20  H43 ZIN AC000       0.082  -2.482  -0.690  0.00  0.00     0.178 HD
BRANCH  19  21
ATOM     21  C5  ZIN AC000       0.248  -0.547  -1.546  0.00  0.00     0.175 C 
BRANCH  21  22
ATOM     22  C2  ZIN AC000      -0.620  -0.069  -0.381  0.00  0.00     0.067 C 
ATOM     23  C1  ZIN AC000      -0.852   1.439  -0.502  0.00  0.00     0.047 C 
ATOM     24  C3  ZIN AC000       0.088  -0.371   0.941  0.00  0.00     0.047 C 
BRANCH  22  25
ATOM     25  O4  ZIN AC000      -1.877  -0.747  -0.414  0.00  0.00    -0.389 OA
ATOM     26  H40 ZIN AC000      -2.382  -0.600  -1.226  0.00  0.00     0.210 HD
ENDBRANCH  22  25
ENDBRANCH  21  22
ENDBRANCH  19  21
ENDBRANCH   1  19
BRANCH   5  27
ATOM     27  C23 ZIN AC000       2.380  -6.059  -3.066  0.00  0.00     0.106 A 
ATOM     28  N32 ZIN AC000       1.842  -6.728  -2.054  0.00  0.00    -0.240 NA
ATOM     29  C27 ZIN AC000       2.009  -8.027  -1.919  0.00  0.00     0.141 A 
ATOM     30  C26 ZIN AC000       2.766  -8.745  -2.828  0.00  0.00     0.036 A 
ATOM     31  C25 ZIN AC000       3.350  -8.084  -3.898  0.00  0.00     0.005 A 
ATOM     32  C24 ZIN AC000       3.153  -6.718  -4.018  0.00  0.00     0.036 A 
BRANCH  29  33
ATOM     33  C28 ZIN AC000       1.372  -8.740  -0.754  0.00  0.00     0.434 C 
ATOM     34  F29 ZIN AC000       2.255  -8.741   0.331  0.00  0.00    -0.165 F 
ATOM     35  F30 ZIN AC000       0.191  -8.083  -0.394  0.00  0.00    -0.165 F 
ATOM     36  F31 ZIN AC000       1.080 -10.059  -1.119  0.00  0.00    -0.165 F 
ENDBRANCH  29  33
ENDBRANCH   5  27
TORSDOF 9
