REMARK  5 active torsions:
REMARK  status: ('A' for Active; 'I' for Inactive)
REMARK    1  A    between atoms: C2_2  and  C3_3 
REMARK    2  A    between atoms: C4_4  and  C5_5 
REMARK    3  A    between atoms: C14_14  and  C15_15 
REMARK    4  A    between atoms: C16_16  and  C17_17 
REMARK    5  A    between atoms: C19_19  and  C20_20 
ROOT
ATOM      1  C1  <0> d          -0.560   1.649   1.149  0.00  0.00     0.048 C 
ATOM      2  C2  <0> d          -0.152   0.212   0.949  0.00  0.00    -0.062 C 
ATOM      3  C14 <0> d           0.282  -0.211  -0.274  0.00  0.00     0.007 C 
ENDROOT
BRANCH   2   4
ATOM      4  C3  <0> d          -0.218  -0.693   2.023  0.00  0.00     0.007 C 
ATOM      5  C4  <0> d          -0.650  -0.272   3.241  0.00  0.00     0.009 C 
BRANCH   5   6
ATOM      6  C5  <0> d          -0.837  -1.208   4.289  0.00  0.00    -0.048 C 
ATOM      7  C11 <0> d          -0.082  -0.998   5.569  0.00  0.00    -0.020 C 
ATOM      8  C10 <0> d          -0.718  -1.819   6.695  0.00  0.00     0.014 C 
ATOM      9  C12 <0> d           1.374  -1.431   5.386  0.00  0.00     0.020 C 
ATOM     10  C13 <0> d          -0.124   0.486   5.939  0.00  0.00     0.020 C 
ATOM     11  C9  <0> d          -0.892  -3.261   6.202  0.00  0.00     0.005 C 
ATOM     12  C8  <0> d          -1.961  -3.275   5.107  0.00  0.00     0.034 C 
ATOM     13  C6  <0> d          -1.664  -2.219   4.082  0.00  0.00    -0.077 C 
ATOM     14  C7  <0> d          -2.346  -2.317   2.742  0.00  0.00     0.044 C 
ENDBRANCH   5   6
ENDBRANCH   2   4
BRANCH   3  15
ATOM     15  C15 <0> d           0.347   0.691  -1.345  0.00  0.00     0.001 C 
ATOM     16  C16 <0> d           0.685   0.243  -2.602  0.00  0.00     0.007 C 
BRANCH  16  17
ATOM     17  C17 <0> d           0.844  -1.128  -2.838  0.00  0.00    -0.056 C 
ATOM     18  C18 <0> d          -0.342  -2.053  -2.736  0.00  0.00     0.048 C 
ATOM     19  C19 <0> d           2.083  -1.632  -3.162  0.00  0.00     0.091 C 
BRANCH  19  20
ATOM     20  C20 <0> d           3.211  -0.795  -3.134  0.00  0.00     0.199 C 
ATOM     21  O21 <0> d           3.100   0.458  -2.689  0.00  0.00    -0.644 OA
ATOM     22  O22 <0> d           4.392  -1.253  -3.551  0.00  0.00    -0.644 OA
ENDBRANCH  19  20
ENDBRANCH  16  17
ENDBRANCH   3  15
TORSDOF 5
