REMARK  2 active torsions:
REMARK  status: ('A' for Active; 'I' for Inactive)
REMARK    1  A    between atoms: C6_6  and  C7_7 
REMARK    2  A    between atoms: C7_7  and  C10_9 
ROOT
ATOM      1  C7  <0> d           0.491  -2.735   2.607  0.00  0.00     0.066 C 
ATOM      2  C9  <0> d           1.788  -3.546   2.562  0.00  0.00     0.021 C 
ENDROOT
BRANCH   1   3
ATOM      3  C6  <0> d           0.211  -2.159   1.243  0.00  0.00    -0.042 A 
ATOM      4  C5  <0> d           0.178  -2.987   0.137  0.00  0.00     0.008 A 
ATOM      5  C4  <0> d          -0.079  -2.459  -1.114  0.00  0.00     0.001 A 
ATOM      6  C3  <0> d          -0.304  -1.103  -1.259  0.00  0.00     0.007 A 
ATOM      7  C2  <0> d          -0.273  -0.275  -0.153  0.00  0.00    -0.056 A 
ATOM      8  C1  <0> d          -0.518   1.203  -0.310  0.00  0.00     0.049 C 
ATOM      9  C16 <0> d          -0.010  -0.803   1.098  0.00  0.00    -0.049 A 
ATOM     10  C17 <0> d           0.026   0.100   2.304  0.00  0.00     0.049 C 
ENDBRANCH   1   3
BRANCH   1  11
ATOM     11  C10 <0> d          -0.648  -3.632   3.018  0.00  0.00     0.033 A 
ATOM     12  N14 <0> d          -1.135  -3.769   4.260  0.00  0.00    -0.354 N 
ATOM     13  C13 <0> d          -2.120  -4.625   4.244  0.00  0.00     0.180 A 
ATOM     14  H15 <0> d          -0.811  -3.300   5.045  0.00  0.00     0.166 HD
ATOM     15  N12 <0> d          -2.285  -5.071   2.981  0.00  0.00    -0.360 N 
ATOM     16  C11 <0> d          -1.352  -4.441   2.203  0.00  0.00     0.114 A 
ATOM     17  H28 <0> d          -2.943  -5.718   2.680  0.00  0.00     0.166 HD
ENDBRANCH   1  11
TORSDOF 2
