REMARK  8 active torsions:
REMARK  status: ('A' for Active; 'I' for Inactive)
REMARK    1  A    between atoms: C2_2  and  C3_3 
REMARK    2  A    between atoms: C3_3  and  C4_4 
REMARK    3  A    between atoms: C3_3  and  C6_6 
REMARK    4  A    between atoms: C6_6  and  N8_7 
REMARK    5  A    between atoms: C6_6  and  C12_11 
REMARK       I    between atoms: N8_7  and  C9_8 
REMARK    6  A    between atoms: C14_12  and  N16_13 
REMARK       I    between atoms: N16_13  and  C17_14 
REMARK       I    between atoms: C17_14  and  N18_15 
REMARK    7  A    between atoms: C23_20  and  C25_21 
REMARK    8  A    between atoms: C28_24  and  O30_25 
ROOT
ATOM      1  C12 ZIN AC000      -2.827  -2.451  -0.189  0.00  0.00     0.061 C 
ATOM      2  C14 ZIN AC000      -3.314  -2.137  -1.626  0.00  0.00     0.108 C 
ATOM      3  C22 ZIN AC000      -4.524  -3.089  -1.792  0.00  0.00     0.044 C 
ATOM      4  C23 ZIN AC000      -4.090  -4.382  -1.071  0.00  0.00     0.118 C 
ATOM      5  C28 ZIN AC000      -3.011  -3.976  -0.049  0.00  0.00     0.140 C 
ENDROOT
BRANCH   1   6
ATOM      6  C6  ZIN AC000      -1.353  -2.072  -0.030  0.00  0.00     0.097 C 
BRANCH   6   7
ATOM      7  C3  ZIN AC000      -1.213  -0.549  -0.043  0.00  0.00     0.008 C 
BRANCH   7   8
ATOM      8  C2  ZIN AC000      -1.964   0.042   1.152  0.00  0.00     0.002 C 
ATOM      9  C1  ZIN AC000      -1.958   1.569   1.054  0.00  0.00     0.005 C 
ENDBRANCH   7   8
BRANCH   7  10
ATOM     10  C4  ZIN AC000       0.267  -0.171   0.048  0.00  0.00     0.002 C 
ATOM     11  C5  ZIN AC000       0.997  -0.667  -1.202  0.00  0.00     0.005 C 
ENDBRANCH   7  10
ENDBRANCH   6   7
BRANCH   6  12
ATOM     12  N8  ZIN AC000      -0.849  -2.598   1.241  0.00  0.00    -0.356 N 
ATOM     13  C9  ZIN AC000      -1.546  -2.399   2.377  0.00  0.00     0.213 C 
ATOM     14  C10 ZIN AC000      -0.964  -2.818   3.703  0.00  0.00     0.117 C 
ATOM     15  O11 ZIN AC000      -2.642  -1.882   2.333  0.00  0.00    -0.274 OA
ATOM     16  H42 ZIN AC000      -0.013  -3.090   1.265  0.00  0.00     0.162 HD
ENDBRANCH   6  12
ENDBRANCH   1   6
BRANCH   5  17
ATOM     17  O30 ZIN AC000      -1.782  -4.645  -0.342  0.00  0.00    -0.394 OA
ATOM     18  H51 ZIN AC000      -1.856  -5.609  -0.367  0.00  0.00     0.210 HD
ENDBRANCH   5  17
BRANCH   2  19
ATOM     19  N16 ZIN AC000      -3.731  -0.737  -1.738  0.00  0.00    -0.222 N 
ATOM     20  C17 ZIN AC000      -3.706  -0.111  -2.954  0.00  0.00     0.665 C 
ATOM     21  N18 ZIN AC000      -3.301  -0.775  -4.036  0.00  0.00    -0.235 N 
ATOM     22  N19 ZIN AC000      -4.085   1.161  -3.057  0.00  0.00    -0.235 N 
ATOM     23  H47 ZIN AC000      -3.025  -1.702  -3.962  0.00  0.00     0.174 HD
ATOM     24  H48 ZIN AC000      -3.283  -0.331  -4.899  0.00  0.00     0.174 HD
ATOM     25  H20 ZIN AC000      -4.379   1.645  -2.269  0.00  0.00     0.174 HD
ATOM     26  H21 ZIN AC000      -4.066   1.605  -3.919  0.00  0.00     0.174 HD
ATOM     27  H46 ZIN AC000      -4.026  -0.254  -0.950  0.00  0.00     0.178 HD
ENDBRANCH   2  19
BRANCH   4  28
ATOM     28  C25 ZIN AC000      -5.267  -4.998  -0.359  0.00  0.00     0.179 C 
ATOM     29  O26 ZIN AC000      -6.241  -5.363  -0.996  0.00  0.00    -0.648 OA
ATOM     30  O27 ZIN AC000      -5.246  -5.130   0.852  0.00  0.00    -0.648 OA
ENDBRANCH   4  28
TORSDOF 8
