REMARK  2 active torsions:
REMARK  status: ('A' for Active; 'I' for Inactive)
REMARK    1  A    between atoms: C3_3  and  C4_4 
REMARK    2  A    between atoms: C4_4  and  N5_5 
ROOT
ATOM      1  N5  ZIN AC000       1.348   0.065  -2.926  0.00  0.00    -0.342 N 
ATOM      2  C6  ZIN AC000       1.762   1.448  -2.727  0.00  0.00     0.132 C 
ATOM      3  C7  ZIN AC000       3.215   1.567  -2.267  0.00  0.00     0.078 C 
ATOM      4  C8  ZIN AC000       4.075   0.679  -3.130  0.00  0.00     0.029 A 
ATOM      5  C9  ZIN AC000       3.564  -0.471  -3.693  0.00  0.00     0.067 A 
ATOM      6  C10 ZIN AC000       4.636  -1.080  -4.453  0.00  0.00     0.008 A 
ATOM      7  C11 ZIN AC000       4.721  -2.238  -5.226  0.00  0.00     0.015 A 
ATOM      8  C12 ZIN AC000       5.942  -2.508  -5.819  0.00  0.00     0.001 A 
ATOM      9  C13 ZIN AC000       7.034  -1.673  -5.658  0.00  0.00     0.002 A 
ATOM     10  C14 ZIN AC000       6.973  -0.520  -4.895  0.00  0.00     0.030 A 
ATOM     11  C15 ZIN AC000       5.756  -0.224  -4.287  0.00  0.00     0.045 A 
ATOM     12  N16 ZIN AC000       5.370   0.818  -3.484  0.00  0.00    -0.353 N 
ATOM     13  C17 ZIN AC000       6.238   1.923  -3.070  0.00  0.00     0.156 C 
ATOM     14  C18 ZIN AC000       2.170  -0.868  -3.460  0.00  0.00     0.257 C 
ATOM     15  O19 ZIN AC000       1.769  -1.982  -3.742  0.00  0.00    -0.267 OA
ENDROOT
BRANCH   1  16
ATOM     16  C4  ZIN AC000      -0.005  -0.331  -2.527  0.00  0.00     0.185 C 
BRANCH  16  17
ATOM     17  C3  ZIN AC000       0.008  -0.789  -1.092  0.00  0.00     0.050 A 
ATOM     18  C2  ZIN AC000       0.002  -0.004   0.002  0.00  0.00     0.030 A 
ATOM     19  C1  ZIN AC000      -0.018   1.503   0.010  0.00  0.00     0.070 C 
ATOM     20  N22 ZIN AC000       0.024  -0.798   1.083  0.00  0.00    -0.354 N 
ATOM     21  C21 ZIN AC000       0.034  -2.046   0.700  0.00  0.00     0.180 A 
ATOM     22  H23 ZIN AC000       0.025  -0.493   2.004  0.00  0.00     0.166 HD
ATOM     23  N20 ZIN AC000       0.028  -2.085  -0.650  0.00  0.00    -0.353 N 
ATOM     24  H40 ZIN AC000       0.037  -2.882  -1.202  0.00  0.00     0.166 HD
ENDBRANCH  16  17
ENDBRANCH   1  16
TORSDOF 2
