REMARK  8 active torsions:
REMARK  status: ('A' for Active; 'I' for Inactive)
REMARK    1  A    between atoms: O2_2  and  C3_3 
REMARK    2  A    between atoms: C3_3  and  C5_5 
REMARK    3  A    between atoms: C15_15  and  N16_16 
REMARK    4  A    between atoms: C15_15  and  C36_36 
REMARK    5  A    between atoms: N16_16  and  C17_17 
REMARK    6  A    between atoms: C20_20  and  N21_21 
REMARK       I    between atoms: N21_21  and  C23_23 
REMARK    7  A    between atoms: C23_23  and  C25_25 
REMARK    8  A    between atoms: C25_25  and  N26_26 
ROOT
ATOM      1  C5  ZIN AC000      -3.364  -5.094   3.420  0.00  0.00     0.041 A 
ATOM      2  C6  ZIN AC000      -3.418  -5.656   2.139  0.00  0.00     0.018 A 
ATOM      3  C7  ZIN AC000      -2.306  -6.232   1.595  0.00  0.00     0.016 A 
ATOM      4  C8  ZIN AC000      -1.114  -6.263   2.316  0.00  0.00     0.009 A 
ATOM      5  C9  ZIN AC000      -1.044  -5.704   3.604  0.00  0.00     0.047 A 
ATOM      6  C10 ZIN AC000      -2.172  -5.115   4.149  0.00  0.00     0.048 A 
ATOM      7  N11 ZIN AC000       0.249  -5.874   4.082  0.00  0.00    -0.322 N 
ATOM      8  C12 ZIN AC000       1.015  -6.509   3.179  0.00  0.00     0.259 A 
ATOM      9  O13 ZIN AC000       2.191  -6.795   3.325  0.00  0.00    -0.267 OA
ATOM     10  C14 ZIN AC000       0.233  -6.794   2.029  0.00  0.00     0.072 A 
ATOM     11  C15 ZIN AC000       0.650  -7.442   0.870  0.00  0.00     0.059 C 
ATOM     12  H48 ZIN AC000       0.558  -5.574   4.952  0.00  0.00     0.169 HD
ENDROOT
BRANCH  11  13
ATOM     13  N16 ZIN AC000      -0.177  -7.494  -0.221  0.00  0.00    -0.355 N 
ATOM     14  H49 ZIN AC000      -0.463  -6.674  -0.652  0.00  0.00     0.166 HD
BRANCH  13  15
ATOM     15  C17 ZIN AC000      -0.608  -8.730  -0.713  0.00  0.00     0.032 A 
ATOM     16  C35 ZIN AC000      -1.431  -8.784  -1.831  0.00  0.00     0.031 A 
ATOM     17  C34 ZIN AC000      -1.853 -10.004  -2.319  0.00  0.00     0.032 A 
ATOM     18  C20 ZIN AC000      -1.463 -11.178  -1.686  0.00  0.00     0.036 A 
ATOM     19  C19 ZIN AC000      -0.645 -11.124  -0.565  0.00  0.00     0.032 A 
ATOM     20  C18 ZIN AC000      -0.219  -9.904  -0.080  0.00  0.00     0.031 A 
BRANCH  18  21
ATOM     21  N21 ZIN AC000      -1.895 -12.416  -2.179  0.00  0.00    -0.321 N 
ATOM     22  C22 ZIN AC000      -0.915 -13.411  -2.621  0.00  0.00     0.159 C 
ATOM     23  C23 ZIN AC000      -3.212 -12.691  -2.247  0.00  0.00     0.252 C 
ATOM     24  O24 ZIN AC000      -4.026 -11.837  -1.964  0.00  0.00    -0.271 OA
BRANCH  23  25
ATOM     25  C25 ZIN AC000      -3.675 -14.061  -2.673  0.00  0.00     0.375 C 
BRANCH  25  26
ATOM     26  N26 ZIN AC000      -5.138 -14.064  -2.808  0.00  0.00     0.100 N 
ATOM     27  C33 ZIN AC000      -5.566 -13.191  -3.910  0.00  0.00     0.300 C 
ATOM     28  C32 ZIN AC000      -7.095 -13.175  -3.979  0.00  0.00     0.264 C 
ATOM     29  N29 ZIN AC000      -7.590 -14.541  -4.194  0.00  0.00    -0.072 N 
ATOM     30  C28 ZIN AC000      -7.174 -15.396  -3.073  0.00  0.00     0.264 C 
ATOM     31  H30 ZIN AC000      -7.208 -14.906  -5.053  0.00  0.00     0.279 HD
ATOM     32  C31 ZIN AC000      -9.056 -14.523  -4.278  0.00  0.00     0.269 C 
ATOM     33  C27 ZIN AC000      -5.646 -15.430  -2.996  0.00  0.00     0.300 C 
ENDBRANCH  25  26
ENDBRANCH  23  25
ENDBRANCH  18  21
ENDBRANCH  13  15
ENDBRANCH  11  13
BRANCH  11  34
ATOM     34  C36 ZIN AC000       1.982  -8.072   0.816  0.00  0.00    -0.008 A 
ATOM     35  C41 ZIN AC000       2.376  -8.967   1.815  0.00  0.00     0.014 A 
ATOM     36  C40 ZIN AC000       3.621  -9.557   1.755  0.00  0.00     0.001 A 
ATOM     37  C39 ZIN AC000       4.484  -9.255   0.716  0.00  0.00     0.000 A 
ATOM     38  C38 ZIN AC000       4.103  -8.366  -0.274  0.00  0.00     0.001 A 
ATOM     39  C37 ZIN AC000       2.858  -7.773  -0.230  0.00  0.00     0.014 A 
ENDBRANCH  11  34
BRANCH   1  40
ATOM     40  C3  ZIN AC000      -4.568  -4.473   4.001  0.00  0.00     0.293 C 
ATOM     41  O4  ZIN AC000      -4.523  -3.981   5.111  0.00  0.00    -0.259 OA
BRANCH  40  42
ATOM     42  O2  ZIN AC000      -5.720  -4.452   3.301  0.00  0.00    -0.323 OA
ATOM     43  C1  ZIN AC000      -6.865  -3.824   3.935  0.00  0.00     0.213 C 
ENDBRANCH  40  42
ENDBRANCH   1  40
TORSDOF 8
