REMARK  3 active torsions:
REMARK  status: ('A' for Active; 'I' for Inactive)
REMARK    1  A    between atoms: C5_5  and  S6_6 
REMARK    2  A    between atoms: S6_6  and  C7_7 
REMARK    3  A    between atoms: C12_12  and  N13_13 
ROOT
ATOM      1  C7  ZIN AC000      -0.088  -4.921  -1.735  0.00  0.00     0.027 A 
ATOM      2  C8  ZIN AC000      -0.079  -3.908  -2.682  0.00  0.00     0.021 A 
ATOM      3  C9  ZIN AC000      -0.199  -4.215  -4.024  0.00  0.00     0.001 A 
ATOM      4  C10 ZIN AC000      -0.328  -5.531  -4.428  0.00  0.00     0.002 A 
ATOM      5  C11 ZIN AC000      -0.338  -6.548  -3.490  0.00  0.00     0.025 A 
ATOM      6  C12 ZIN AC000      -0.212  -6.250  -2.143  0.00  0.00     0.028 A 
ENDROOT
BRANCH   1   7
ATOM      7  S6  ZIN AC000       0.065  -4.533  -0.023  0.00  0.00    -0.088 SA
BRANCH   7   8
ATOM      8  C5  ZIN AC000       0.368  -2.797  -0.036  0.00  0.00     0.011 A 
ATOM      9  C4  ZIN AC000      -0.648  -1.910   0.296  0.00  0.00     0.020 A 
ATOM     10  C3  ZIN AC000      -0.406  -0.550   0.284  0.00  0.00     0.008 A 
ATOM     11  C2  ZIN AC000       0.845  -0.071  -0.057  0.00  0.00    -0.061 A 
ATOM     12  C1  ZIN AC000       1.105   1.413  -0.068  0.00  0.00     0.048 C 
ATOM     13  C21 ZIN AC000       1.858  -0.952  -0.392  0.00  0.00     0.014 A 
ATOM     14  C19 ZIN AC000       1.625  -2.312  -0.378  0.00  0.00    -0.044 A 
ATOM     15  C20 ZIN AC000       2.731  -3.271  -0.739  0.00  0.00     0.049 C 
ENDBRANCH   7   8
ENDBRANCH   1   7
BRANCH   6  16
ATOM     16  N13 ZIN AC000      -0.221  -7.278  -1.193  0.00  0.00    -0.279 NA
ATOM     17  C18 ZIN AC000       0.882  -8.220  -1.426  0.00  0.00     0.125 C 
ATOM     18  C17 ZIN AC000       0.885  -9.281  -0.323  0.00  0.00     0.284 C 
ATOM     19  N16 ZIN AC000      -0.408  -9.980  -0.315  0.00  0.00     0.085 N 
ATOM     20  C15 ZIN AC000      -1.511  -9.037  -0.082  0.00  0.00     0.284 C 
ATOM     21  H35 ZIN AC000      -0.415 -10.721   0.370  0.00  0.00     0.315 HD
ATOM     22  C14 ZIN AC000      -1.514  -7.976  -1.185  0.00  0.00     0.125 C 
ENDBRANCH   6  16
TORSDOF 3
