REMARK  7 active torsions:
REMARK  status: ('A' for Active; 'I' for Inactive)
REMARK    1  A    between atoms: C3_3  and  C4_4 
REMARK    2  A    between atoms: C5_5  and  C6_6 
REMARK    3  A    between atoms: C12_12  and  N14_13 
REMARK       I    between atoms: N14_13  and  C15_14 
REMARK    4  A    between atoms: C15_14  and  C17_16 
REMARK    5  A    between atoms: C17_16  and  N19_17 
REMARK    6  A    between atoms: C17_16  and  C23_21 
REMARK    7  A    between atoms: C26_24  and  O27_25 
ROOT
ATOM      1  N14 ZIN AC000       2.650  -6.348  -0.730  0.00  0.00    -0.343 N 
ATOM      2  C15 ZIN AC000       3.427  -7.447  -0.805  0.00  0.00     0.253 C 
ATOM      3  O16 ZIN AC000       3.258  -8.249  -1.699  0.00  0.00    -0.271 OA
ATOM      4  H39 ZIN AC000       2.785  -5.707  -0.015  0.00  0.00     0.163 HD
ENDROOT
BRANCH   1   5
ATOM      5  C12 ZIN AC000       1.601  -6.123  -1.728  0.00  0.00     0.210 C 
ATOM      6  C10 ZIN AC000       1.934  -5.068  -2.756  0.00  0.00     0.251 C 
ATOM      7  N9  ZIN AC000       1.241  -4.095  -2.178  0.00  0.00    -0.293 N 
ATOM      8  O11 ZIN AC000       2.606  -5.099  -3.766  0.00  0.00    -0.271 OA
ATOM      9  C5  ZIN AC000       1.114  -2.703  -2.120  0.00  0.00     0.122 C 
ATOM     10  C30 ZIN AC000       0.555  -5.101  -1.321  0.00  0.00     0.187 C 
ATOM     11  C4  ZIN AC000       0.601  -2.119  -1.016  0.00  0.00    -0.015 C 
ATOM     12  C33 ZIN AC000       0.055  -2.794   0.200  0.00  0.00     0.117 C 
ATOM     13  S32 ZIN AC000       0.672  -4.503   0.399  0.00  0.00    -0.136 SA
BRANCH   9  14
ATOM     14  C6  ZIN AC000       1.537  -1.880  -3.254  0.00  0.00     0.227 C 
ATOM     15  O7  ZIN AC000       2.709  -1.540  -3.361  0.00  0.00    -0.643 OA
ATOM     16  O8  ZIN AC000       0.719  -1.532  -4.097  0.00  0.00    -0.643 OA
ENDBRANCH   9  14
BRANCH  11  17
ATOM     17  C3  ZIN AC000       0.582  -0.658  -1.008  0.00  0.00     0.006 C 
ATOM     18  C2  ZIN AC000      -0.006  -0.004  -0.003  0.00  0.00    -0.030 C 
ATOM     19  C1  ZIN AC000      -0.025   1.503   0.006  0.00  0.00     0.036 C 
ENDBRANCH  11  17
ENDBRANCH   1   5
BRANCH   2  20
ATOM     20  C17 ZIN AC000       4.505  -7.679   0.222  0.00  0.00     0.307 C 
BRANCH  20  21
ATOM     21  N19 ZIN AC000       5.493  -8.627  -0.311  0.00  0.00    -0.062 N 
ATOM     22  H20 ZIN AC000       5.038  -9.502  -0.524  0.00  0.00     0.275 HD
ATOM     23  H21 ZIN AC000       5.904  -8.248  -1.151  0.00  0.00     0.275 HD
ATOM     24  H22 ZIN AC000       6.215  -8.782   0.377  0.00  0.00     0.275 HD
ENDBRANCH  20  21
BRANCH  20  25
ATOM     25  C23 ZIN AC000       3.891  -8.245   1.476  0.00  0.00    -0.019 A 
ATOM     26  C29 ZIN AC000       3.638  -7.417   2.555  0.00  0.00     0.012 A 
ATOM     27  C28 ZIN AC000       3.071  -7.932   3.704  0.00  0.00     0.037 A 
ATOM     28  C26 ZIN AC000       2.765  -9.283   3.780  0.00  0.00     0.065 A 
ATOM     29  C25 ZIN AC000       3.025 -10.113   2.698  0.00  0.00     0.037 A 
ATOM     30  C24 ZIN AC000       3.588  -9.591   1.549  0.00  0.00     0.012 A 
BRANCH  28  31
ATOM     31  O27 ZIN AC000       2.212  -9.794   4.911  0.00  0.00    -0.361 OA
ATOM     32  H42 ZIN AC000       2.858 -10.106   5.559  0.00  0.00     0.217 HD
ENDBRANCH  28  31
ENDBRANCH  20  25
ENDBRANCH   2  20
TORSDOF 7
