REMARK  3 active torsions:
REMARK  status: ('A' for Active; 'I' for Inactive)
REMARK    1  A    between atoms: N2_2  and  C5_5 
REMARK    2  A    between atoms: C5_5  and  C8_7 
REMARK    3  A    between atoms: C8_7  and  C9_8 
ROOT
ATOM      1  C8  <0> d           0.729  -2.001  -1.069  0.00  0.00     0.037 C 
ENDROOT
BRANCH   1   2
ATOM      2  C5  <0> d           0.600  -0.479  -1.148  0.00  0.00     0.181 C 
ATOM      3  C7  <0> d           1.980   0.139  -1.381  0.00  0.00     0.040 C 
BRANCH   2   4
ATOM      4  N2  <0> d          -0.291  -0.120  -2.260  0.00  0.00    -0.075 N 
ATOM      5  C1  <0> d          -0.529   1.330  -2.248  0.00  0.00     0.267 C 
ATOM      6  H3  <0> d          -1.169  -0.605  -2.157  0.00  0.00     0.277 HD
ATOM      7  H4  <0> d           0.139  -0.383  -3.134  0.00  0.00     0.277 HD
ENDBRANCH   2   4
ENDBRANCH   1   2
BRANCH   1   8
ATOM      8  C9  <0> d           1.539  -2.381   0.172  0.00  0.00    -0.013 C 
ATOM      9  C14 <0> d           1.790  -3.890   0.175  0.00  0.00     0.005 C 
ATOM     10  C13 <0> d           2.601  -4.269   1.416  0.00  0.00     0.000 C 
ATOM     11  C12 <0> d           1.822  -3.879   2.673  0.00  0.00     0.000 C 
ATOM     12  C11 <0> d           1.571  -2.370   2.670  0.00  0.00     0.000 C 
ATOM     13  C10 <0> d           0.760  -1.991   1.429  0.00  0.00     0.005 C 
ENDBRANCH   1   8
TORSDOF 3
