REMARK  4 active torsions:
REMARK  status: ('A' for Active; 'I' for Inactive)
REMARK    1  A    between atoms: C2_2  and  C10_10 
REMARK    2  A    between atoms: C3_3  and  C4_4 
REMARK    3  A    between atoms: C24_21  and  O26_22 
REMARK    4  A    between atoms: C35_30  and  O37_31 
ROOT
ATOM      1  C10 ZIN AC000      -0.059  -0.736  -1.308  0.00  0.00     0.115 C 
ATOM      2  C12 ZIN AC000       1.010  -0.017  -2.135  0.00  0.00     0.064 C 
ATOM      3  C13 ZIN AC000       2.367  -0.164  -1.440  0.00  0.00     0.159 A 
ATOM      4  O15 ZIN AC000       3.152   1.018  -1.276  0.00  0.00    -0.369 OA
ATOM      5  C16 ZIN AC000       3.626   0.103  -2.267  0.00  0.00     0.084 A 
ATOM      6  C17 ZIN AC000       4.889  -0.697  -1.931  0.00  0.00     0.049 C 
ATOM      7  C18 ZIN AC000       3.447   0.490  -3.736  0.00  0.00     0.040 C 
ATOM      8  C19 ZIN AC000       3.393  -0.763  -4.606  0.00  0.00     0.004 C 
ATOM      9  C20 ZIN AC000       2.095  -0.775  -5.424  0.00  0.00     0.007 C 
ATOM     10  C21 ZIN AC000       2.403  -1.278  -6.834  0.00  0.00     0.011 C 
ATOM     11  C23 ZIN AC000       2.473  -0.101  -7.805  0.00  0.00     0.012 C 
ATOM     12  C24 ZIN AC000       1.352  -2.291  -7.276  0.00  0.00     0.132 C 
ATOM     13  C27 ZIN AC000      -0.050  -1.671  -7.280  0.00  0.00     0.081 C 
ATOM     14  C29 ZIN AC000      -0.510  -1.563  -8.740  0.00  0.00     0.020 C 
ATOM     15  C30 ZIN AC000      -0.997  -2.564  -6.519  0.00  0.00     0.143 C 
ATOM     16  O31 ZIN AC000      -0.596  -3.656  -6.176  0.00  0.00    -0.297 OA
ATOM     17  C32 ZIN AC000      -2.412  -2.150  -6.214  0.00  0.00     0.040 C 
ATOM     18  C33 ZIN AC000      -2.565  -0.634  -6.340  0.00  0.00     0.026 C 
ATOM     19  C34 ZIN AC000      -3.332  -2.799  -7.273  0.00  0.00     0.026 C 
ATOM     20  C35 ZIN AC000      -2.881  -2.640  -4.853  0.00  0.00     0.142 C 
ATOM     21  C38 ZIN AC000      -2.851  -1.599  -3.750  0.00  0.00     0.135 C 
ATOM     22  C39 ZIN AC000      -1.480  -1.473  -3.138  0.00  0.00     0.220 C 
ATOM     23  O40 ZIN AC000      -0.521  -2.028  -3.623  0.00  0.00    -0.274 OA
ATOM     24  N41 ZIN AC000      -1.351  -0.706  -2.019  0.00  0.00    -0.353 N 
ATOM     25  H77 ZIN AC000      -2.095  -0.164  -1.695  0.00  0.00     0.163 HD
ENDROOT
BRANCH   1  26
ATOM     26  C2  ZIN AC000      -0.209  -0.041   0.023  0.00  0.00    -0.059 C 
ATOM     27  C1  ZIN AC000      -0.735   1.370   0.082  0.00  0.00     0.045 C 
ATOM     28  C3  ZIN AC000       0.122  -0.672   1.141  0.00  0.00     0.036 C 
BRANCH  28  29
ATOM     29  C4  ZIN AC000       0.125   0.056   2.428  0.00  0.00     0.064 A 
ATOM     30  N9  ZIN AC000      -0.080   1.363   2.518  0.00  0.00    -0.246 NA
ATOM     31  C7  ZIN AC000      -0.057   1.881   3.697  0.00  0.00     0.071 A 
ATOM     32  S6  ZIN AC000       0.257   0.681   4.873  0.00  0.00    -0.085 SA
ATOM     33  C8  ZIN AC000      -0.271   3.342   3.998  0.00  0.00     0.078 C 
ATOM     34  C5  ZIN AC000       0.341  -0.550   3.615  0.00  0.00     0.083 A 
ENDBRANCH  28  29
ENDBRANCH   1  26
BRANCH  20  35
ATOM     35  O37 ZIN AC000      -2.162  -3.806  -4.440  0.00  0.00    -0.394 OA
ATOM     36  H74 ZIN AC000      -2.432  -4.149  -3.577  0.00  0.00     0.210 HD
ENDBRANCH  20  35
BRANCH  12  37
ATOM     37  O26 ZIN AC000       1.662  -2.738  -8.603  0.00  0.00    -0.394 OA
ATOM     38  H64 ZIN AC000       1.037  -3.387  -8.955  0.00  0.00     0.210 HD
ENDBRANCH  12  37
TORSDOF 4
