REMARK  5 active torsions:
REMARK  status: ('A' for Active; 'I' for Inactive)
REMARK    1  A    between atoms: N2_2  and  C5_5 
REMARK    2  A    between atoms: C5_5  and  C6_6 
REMARK    3  A    between atoms: C6_6  and  C7_7 
REMARK    4  A    between atoms: C13_13  and  C14_14 
REMARK    5  A    between atoms: C14_14  and  C15_15 
ROOT
ATOM      1  C7  ZIN AC000      -3.492  -0.632  -1.275  0.00  0.00    -0.029 A 
ATOM      2  C8  ZIN AC000      -3.922  -1.785  -1.812  0.00  0.00     0.096 A 
ATOM      3  N9  ZIN AC000      -5.268  -1.922  -1.607  0.00  0.00    -0.365 N 
ATOM      4  C10 ZIN AC000      -5.749  -0.833  -0.915  0.00  0.00     0.043 A 
ATOM      5  C11 ZIN AC000      -7.011  -0.471  -0.457  0.00  0.00     0.031 A 
ATOM      6  C12 ZIN AC000      -7.178   0.716   0.222  0.00  0.00     0.009 A 
ATOM      7  C13 ZIN AC000      -6.099   1.557   0.454  0.00  0.00    -0.055 A 
ATOM      8  C22 ZIN AC000      -4.850   1.221   0.012  0.00  0.00     0.021 A 
ATOM      9  C23 ZIN AC000      -4.657   0.020  -0.672  0.00  0.00    -0.001 A 
ATOM     10  H35 ZIN AC000      -5.803  -2.674  -1.904  0.00  0.00     0.165 HD
ENDROOT
BRANCH   7  11
ATOM     11  C14 ZIN AC000      -6.306   2.851   1.199  0.00  0.00     0.066 C 
BRANCH  11  12
ATOM     12  C15 ZIN AC000      -6.116   2.611   2.698  0.00  0.00     0.115 A 
ATOM     13  N21 ZIN AC000      -7.204   1.776   3.230  0.00  0.00    -0.330 N 
ATOM     14  C19 ZIN AC000      -7.871   2.478   4.161  0.00  0.00     0.361 A 
ATOM     15  H42 ZIN AC000      -7.409   0.870   2.953  0.00  0.00     0.165 HD
ATOM     16  O18 ZIN AC000      -7.388   3.710   4.359  0.00  0.00    -0.302 OA
ATOM     17  O20 ZIN AC000      -8.825   2.034   4.768  0.00  0.00    -0.239 OA
ATOM     18  C17 ZIN AC000      -6.249   3.933   3.478  0.00  0.00     0.206 A 
ENDBRANCH  11  12
ENDBRANCH   7  11
BRANCH   1  19
ATOM     19  C6  ZIN AC000      -2.078  -0.110  -1.286  0.00  0.00     0.068 C 
BRANCH  19  20
ATOM     20  C5  ZIN AC000      -1.376  -0.512   0.012  0.00  0.00     0.238 C 
BRANCH  20  21
ATOM     21  N2  ZIN AC000       0.002  -0.004   0.002  0.00  0.00    -0.079 N 
ATOM     22  C1  ZIN AC000      -0.018   1.465   0.010  0.00  0.00     0.269 C 
ATOM     23  H3  ZIN AC000       0.474  -0.330  -0.828  0.00  0.00     0.278 HD
ATOM     24  C4  ZIN AC000       0.713  -0.491   1.192  0.00  0.00     0.269 C 
ENDBRANCH  20  21
ENDBRANCH  19  20
ENDBRANCH   1  19
TORSDOF 5
