REMARK  3 active torsions:
REMARK  status: ('A' for Active; 'I' for Inactive)
REMARK    1  A    between atoms: C7_7  and  N8_8 
REMARK    2  A    between atoms: C13_13  and  S14_14 
REMARK    3  A    between atoms: S14_14  and  N15_15 
ROOT
ATOM      1  N8  <0> d          -0.212  -0.013   2.443  0.00  0.00    -0.292 N 
ATOM      2  C9  <0> d          -1.406   0.128   3.055  0.00  0.00     0.262 C 
ATOM      3  O10 <0> d          -2.422  -0.274   2.520  0.00  0.00    -0.267 OA
ATOM      4  C11 <0> d          -1.466   0.773   4.378  0.00  0.00     0.060 A 
ATOM      5  C12 <0> d          -2.671   1.200   4.931  0.00  0.00     0.046 A 
ATOM      6  C13 <0> d          -2.674   1.794   6.176  0.00  0.00     0.102 A 
ATOM      7  C18 <0> d          -1.490   1.966   6.878  0.00  0.00     0.059 A 
ATOM      8 Cl19 <0> d          -1.519   2.711   8.445  0.00  0.00    -0.083 Cl
ATOM      9  C20 <0> d          -0.286   1.548   6.338  0.00  0.00     0.055 A 
ATOM     10  C21 <0> d          -0.266   0.954   5.090  0.00  0.00     0.047 A 
ATOM     11  N22 <0> d           0.917   0.525   4.497  0.00  0.00    -0.368 N 
ATOM     12  C23 <0> d           1.011   0.528   3.035  0.00  0.00     0.188 C 
ATOM     13  C25 <0> d           1.204   1.964   2.543  0.00  0.00     0.056 C 
ATOM     14  H37 <0> d           1.664   0.227   5.040  0.00  0.00     0.161 HD
ENDROOT
BRANCH   1  15
ATOM     15  C7  <0> d          -0.141  -0.695   1.224  0.00  0.00     0.045 A 
ATOM     16  C2  <0> d           0.092  -2.064   1.204  0.00  0.00    -0.035 A 
ATOM     17  C1  <0> d           0.263  -2.819   2.498  0.00  0.00     0.050 C 
ATOM     18  C3  <0> d           0.161  -2.734  -0.001  0.00  0.00     0.009 A 
ATOM     19  C4  <0> d           0.005  -2.042  -1.188  0.00  0.00     0.001 A 
ATOM     20  C5  <0> d          -0.221  -0.678  -1.173  0.00  0.00     0.002 A 
ATOM     21  C6  <0> d          -0.292  -0.002   0.030  0.00  0.00     0.030 A 
ENDBRANCH   1  15
BRANCH   6  22
ATOM     22  S14 <0> d          -4.195   2.337   6.881  0.00  0.00     0.258 S 
ATOM     23  O16 <0> d          -3.974   3.664   7.338  0.00  0.00    -0.201 OA
ATOM     24  O17 <0> d          -5.213   1.994   5.951  0.00  0.00    -0.201 OA
BRANCH  22  25
ATOM     25  N15 <0> d          -4.466   1.417   8.231  0.00  0.00    -0.324 N 
ATOM     26  H34 <0> d          -4.957   1.788   8.980  0.00  0.00     0.169 HD
ATOM     27  H35 <0> d          -4.133   0.506   8.272  0.00  0.00     0.169 HD
ENDBRANCH  22  25
ENDBRANCH   6  22
TORSDOF 3
