REMARK  4 active torsions:
REMARK  status: ('A' for Active; 'I' for Inactive)
REMARK    1  A    between atoms: C3_3  and  O4_4 
REMARK    2  A    between atoms: O4_4  and  C5_5 
REMARK    3  A    between atoms: N19_17  and  O20_18 
REMARK    4  A    between atoms: C29_25  and  C30_26 
ROOT
ATOM      1  C1  ZIN AC000       0.718  -1.335  -0.026  0.00  0.00     0.015 C 
ATOM      2  C2  ZIN AC000       0.557  -0.173  -0.075  0.00  0.00    -0.077 C 
ATOM      3  C3  ZIN AC000       0.356   1.284  -0.137  0.00  0.00     0.140 C 
ATOM      4  C8  ZIN AC000      -0.127   1.700  -1.548  0.00  0.00     0.053 C 
ATOM      5  C9  ZIN AC000       0.994   2.592  -2.149  0.00  0.00     0.010 C 
ATOM      6  C10 ZIN AC000       2.240   2.145  -1.376  0.00  0.00     0.002 C 
ATOM      7  C12 ZIN AC000       3.387   3.138  -1.341  0.00  0.00    -0.005 C 
ATOM      8  C14 ZIN AC000       3.928   3.352  -2.757  0.00  0.00     0.010 C 
ATOM      9  C15 ZIN AC000       5.037   4.406  -2.717  0.00  0.00     0.035 C 
ATOM     10  C16 ZIN AC000       6.093   3.968  -1.719  0.00  0.00    -0.073 C 
ATOM     11  C17 ZIN AC000       7.362   4.007  -2.108  0.00  0.00     0.032 C 
ATOM     12  C18 ZIN AC000       8.431   3.608  -1.176  0.00  0.00     0.061 C 
ATOM     13  N19 ZIN AC000       9.601   3.241  -1.596  0.00  0.00    -0.141 NA
ATOM     14  C21 ZIN AC000       8.089   3.649   0.301  0.00  0.00     0.062 C 
ATOM     15  C22 ZIN AC000       6.763   2.913   0.482  0.00  0.00     0.015 C 
ATOM     16  C23 ZIN AC000       5.657   3.530  -0.355  0.00  0.00     0.019 C 
ATOM     17  C25 ZIN AC000       4.490   2.541  -0.455  0.00  0.00    -0.002 C 
ATOM     18  C27 ZIN AC000       3.991   2.212   0.949  0.00  0.00     0.006 C 
ATOM     19  C28 ZIN AC000       2.743   1.316   0.914  0.00  0.00     0.014 C 
ATOM     20  C29 ZIN AC000       1.682   2.010   0.067  0.00  0.00     0.007 C 
ENDROOT
BRANCH   3  21
ATOM     21  O4  ZIN AC000      -0.605   1.701   0.869  0.00  0.00    -0.296 OA
BRANCH  21  22
ATOM     22  C5  ZIN AC000      -1.833   1.163   0.799  0.00  0.00     0.256 C 
ATOM     23  C6  ZIN AC000      -2.883   1.548   1.809  0.00  0.00     0.126 C 
ATOM     24  O7  ZIN AC000      -2.095   0.369  -0.073  0.00  0.00    -0.266 OA
ENDBRANCH  21  22
ENDBRANCH   3  21
BRANCH  20  25
ATOM     25  C30 ZIN AC000       1.434   3.422   0.601  0.00  0.00     0.009 C 
ATOM     26  C31 ZIN AC000       1.072   3.350   2.085  0.00  0.00     0.006 C 
ENDBRANCH  20  25
BRANCH  13  27
ATOM     27  O20 ZIN AC000      10.601   2.865  -0.666  0.00  0.00    -0.266 OA
ATOM     28  H45 ZIN AC000      11.440   2.608  -1.073  0.00  0.00     0.247 HD
ENDBRANCH  13  27
TORSDOF 4
