REMARK  0 active torsions:
REMARK  status: ('A' for Active; 'I' for Inactive)
ROOT
ATOM      1  C1  <0> d          -0.018   1.461   0.010  0.00  0.00     0.157 C 
ATOM      2  N2  <0> d           0.002  -0.004   0.002  0.00  0.00    -0.338 N 
ATOM      3  C3  <0> d           0.009  -0.800  -1.085  0.00  0.00     0.212 A 
ATOM      4  N4  <0> d           0.028  -2.054  -0.714  0.00  0.00    -0.223 NA
ATOM      5  C5  <0> d           0.034  -2.132   0.619  0.00  0.00     0.167 A 
ATOM      6  C6  <0> d           0.024  -0.831   1.107  0.00  0.00     0.151 A 
ATOM      7  C7  <0> d           0.028  -0.620   2.503  0.00  0.00     0.282 A 
ATOM      8  O8  <0> d           0.019   0.510   2.955  0.00  0.00    -0.265 OA
ATOM      9  N9  <0> d           0.042  -1.686   3.330  0.00  0.00    -0.269 N 
ATOM     10  C10 <0> d           0.046  -1.474   4.780  0.00  0.00     0.164 C 
ATOM     11  C11 <0> d           0.052  -2.939   2.844  0.00  0.00     0.332 A 
ATOM     12  O12 <0> d           0.064  -3.876   3.620  0.00  0.00    -0.246 OA
ATOM     13  N13 <0> d           0.053  -3.184   1.520  0.00  0.00    -0.286 N 
ATOM     14  C14 <0> d           0.063  -4.565   1.032  0.00  0.00     0.163 C 
ENDROOT
TORSDOF 0
