REMARK  1 active torsions:
REMARK  status: ('A' for Active; 'I' for Inactive)
REMARK    1  A    between atoms: C3_3  and  O4_4 
ROOT
ATOM      1  C1  <0> d          -0.267  -0.778  -0.806  0.00  0.00     0.015 C 
ATOM      2  C2  <0> d          -0.260   0.394  -0.748  0.00  0.00    -0.078 C 
ATOM      3  C3  <0> d          -0.251   1.864  -0.674  0.00  0.00     0.128 C 
ATOM      4  C5  <0> d          -0.927   2.469  -1.930  0.00  0.00     0.052 C 
ATOM      5  C6  <0> d           0.178   3.256  -2.687  0.00  0.00     0.010 C 
ATOM      6  C7  <0> d           1.468   2.579  -2.210  0.00  0.00     0.002 C 
ATOM      7  C9  <0> d           2.735   3.404  -2.341  0.00  0.00    -0.004 C 
ATOM      8  C11 <0> d           3.011   3.707  -3.815  0.00  0.00     0.010 C 
ATOM      9  C12 <0> d           4.264   4.580  -3.933  0.00  0.00     0.035 C 
ATOM     10  C13 <0> d           5.409   3.864  -3.230  0.00  0.00    -0.068 A 
ATOM     11  C14 <0> d           6.542   3.714  -3.914  0.00  0.00     0.043 A 
ATOM     12  C15 <0> d           7.658   3.023  -3.261  0.00  0.00     0.109 A 
ATOM     13  C16 <0> d           7.538   2.533  -1.983  0.00  0.00    -0.002 A 
ATOM     14  C17 <0> d           8.782   1.953  -1.725  0.00  0.00     0.156 A 
ATOM     15  N18 <0> d           9.502   2.132  -2.802  0.00  0.00    -0.140 NA
ATOM     16  O19 <0> d           8.890   2.728  -3.667  0.00  0.00    -0.213 OA
ATOM     17  C20 <0> d           6.310   2.654  -1.149  0.00  0.00     0.057 A 
ATOM     18  C21 <0> d           5.183   3.387  -1.835  0.00  0.00    -0.013 A 
ATOM     19  C22 <0> d           4.911   4.637  -0.995  0.00  0.00     0.021 C 
ATOM     20  C23 <0> d           3.885   2.579  -1.743  0.00  0.00     0.003 C 
ATOM     21  C25 <0> d           3.617   2.217  -0.285  0.00  0.00     0.007 C 
ATOM     22  C26 <0> d           2.263   1.509  -0.116  0.00  0.00     0.014 C 
ATOM     23  C27 <0> d           1.182   2.386  -0.697  0.00  0.00     0.003 C 
ATOM     24  C28 <0> d           1.243   3.776  -0.059  0.00  0.00     0.020 C 
ENDROOT
BRANCH   3  25
ATOM     25  O4  <0> d          -0.919   2.304   0.510  0.00  0.00    -0.377 OA
ATOM     26  H30 <0> d          -1.842   2.019   0.570  0.00  0.00     0.211 HD
ENDBRANCH   3  25
TORSDOF 1
