REMARK  1 active torsions:
REMARK  status: ('A' for Active; 'I' for Inactive)
REMARK    1  A    between atoms: C2_2  and  O3_3 
ROOT
ATOM      1  C1  <0> d           0.026   1.542   0.011  0.00  0.00     0.046 C 
ATOM      2  C2  <0> d           0.039   0.012  -0.012  0.00  0.00     0.062 C 
ATOM      3  C4  <0> d          -1.407  -0.538   0.057  0.00  0.00     0.038 C 
ATOM      4  C5  <0> d          -1.518  -1.314   1.398  0.00  0.00     0.009 C 
ATOM      5  C6  <0> d          -0.422  -0.672   2.256  0.00  0.00     0.001 C 
ATOM      6  C8  <0> d           0.088  -1.508   3.414  0.00  0.00    -0.005 C 
ATOM      7  C10 <0> d          -1.037  -1.768   4.418  0.00  0.00     0.006 C 
ATOM      8  C11 <0> d          -0.489  -2.566   5.603  0.00  0.00     0.006 C 
ATOM      9  C12 <0> d           0.625  -1.769   6.284  0.00  0.00     0.005 C 
ATOM     10  C14 <0> d           1.178  -2.572   7.467  0.00  0.00     0.116 C 
ATOM     11  C15 <0> d           2.396  -1.853   8.002  0.00  0.00     0.259 C 
ATOM     12  O16 <0> d           2.516  -1.627   9.184  0.00  0.00    -0.265 OA
ATOM     13  O17 <0> d           3.346  -1.470   7.124  0.00  0.00    -0.321 OA
ATOM     14  C18 <0> d           2.873  -0.725   5.967  0.00  0.00     0.188 C 
ATOM     15  C19 <0> d           1.752  -1.509   5.279  0.00  0.00    -0.014 C 
ATOM     16  C20 <0> d           2.296  -2.850   4.782  0.00  0.00     0.018 C 
ATOM     17  C21 <0> d           1.219  -0.714   4.086  0.00  0.00     0.001 C 
ATOM     18  C23 <0> d           2.351  -0.413   3.110  0.00  0.00     0.007 C 
ATOM     19  C24 <0> d           1.831   0.306   1.854  0.00  0.00     0.013 C 
ATOM     20  C25 <0> d           0.736  -0.529   1.231  0.00  0.00    -0.009 C 
ATOM     21  C26 <0> d           1.255  -1.943   0.961  0.00  0.00     0.018 C 
ENDROOT
BRANCH   2  22
ATOM     22  O3  <0> d           0.694  -0.458  -1.192  0.00  0.00    -0.389 OA
ATOM     23  H30 <0> d           0.283  -0.162  -2.015  0.00  0.00     0.210 HD
ENDBRANCH   2  22
TORSDOF 1
