REMARK  5 active torsions:
REMARK  status: ('A' for Active; 'I' for Inactive)
REMARK    1  A    between atoms: C2_2  and  O3_3 
REMARK    2  A    between atoms: O3_3  and  C4_4 
REMARK    3  A    between atoms: C4_4  and  C5_5 
REMARK    4  A    between atoms: C5_5  and  N6_6 
REMARK    5  A    between atoms: C14_14  and  N15_15 
ROOT
ATOM      1  N6  ZIN AC000      -3.207  -3.800  -0.116  0.00  0.00    -0.318 N 
ATOM      2  C7  ZIN AC000      -3.119  -4.522  -1.295  0.00  0.00     0.066 A 
ATOM      3  C8  ZIN AC000      -3.143  -4.178  -2.637  0.00  0.00     0.032 A 
ATOM      4  C9  ZIN AC000      -3.030  -5.160  -3.600  0.00  0.00     0.002 A 
ATOM      5  C10 ZIN AC000      -2.892  -6.490  -3.234  0.00  0.00     0.002 A 
ATOM      6  C11 ZIN AC000      -2.866  -6.850  -1.905  0.00  0.00     0.034 A 
ATOM      7  C12 ZIN AC000      -2.979  -5.868  -0.918  0.00  0.00     0.087 A 
ATOM      8  N13 ZIN AC000      -2.988  -5.906   0.440  0.00  0.00    -0.218 NA
ATOM      9  C14 ZIN AC000      -3.117  -4.692   0.914  0.00  0.00     0.185 A 
ENDROOT
BRANCH   9  10
ATOM     10  N15 ZIN AC000      -3.162  -4.364   2.252  0.00  0.00    -0.251 NA
ATOM     11  C22 ZIN AC000      -2.096  -3.526   2.600  0.00  0.00     0.129 C 
ATOM     12  C21 ZIN AC000      -2.006  -3.305   4.123  0.00  0.00     0.286 C 
ATOM     13  N19 ZIN AC000      -2.995  -2.326   4.513  0.00  0.00     0.085 N 
ATOM     14  C18 ZIN AC000      -4.276  -2.916   4.966  0.00  0.00     0.273 C 
ATOM     15  C20 ZIN AC000      -2.455  -1.403   5.521  0.00  0.00     0.309 C 
ATOM     16  C17 ZIN AC000      -4.720  -4.098   4.091  0.00  0.00     0.045 C 
ATOM     17  C16 ZIN AC000      -4.492  -3.834   2.623  0.00  0.00     0.100 C 
ENDBRANCH   9  10
BRANCH   1  18
ATOM     18  C5  ZIN AC000      -3.362  -2.348   0.004  0.00  0.00     0.158 C 
BRANCH  18  19
ATOM     19  C4  ZIN AC000      -1.990  -1.678  -0.095  0.00  0.00     0.187 C 
BRANCH  19  20
ATOM     20  O3  ZIN AC000      -2.127  -0.275   0.136  0.00  0.00    -0.390 OA
BRANCH  20  21
ATOM     21  C2  ZIN AC000      -0.897   0.449   0.066  0.00  0.00     0.163 C 
ATOM     22  C1  ZIN AC000      -1.162   1.933   0.327  0.00  0.00     0.033 C 
ENDBRANCH  20  21
ENDBRANCH  19  20
ENDBRANCH  18  19
ENDBRANCH   1  18
TORSDOF 5
