REMARK  10 active torsions:
REMARK  status: ('A' for Active; 'I' for Inactive)
REMARK    1  A    between atoms: C2_2  and  O3_3 
REMARK    2  A    between atoms: O3_3  and  C4_4 
REMARK    3  A    between atoms: C4_4  and  C6_6 
REMARK    4  A    between atoms: C6_6  and  C8_7 
REMARK    5  A    between atoms: C6_6  and  N16_15 
REMARK    6  A    between atoms: C8_7  and  C9_8 
REMARK    7  A    between atoms: C9_8  and  C10_9 
REMARK    8  A    between atoms: N16_15  and  C17_16 
REMARK    9  A    between atoms: C17_16  and  C20_18 
REMARK       I    between atoms: C20_18  and  N22_20 
REMARK   10  A    between atoms: C23_21  and  C25_22 
ROOT
ATOM      1  N16 ZIN AC000      -3.397  -3.759  -0.277  0.00  0.00     0.111 N 
ATOM      2  H50 ZIN AC000      -3.048  -4.032   0.629  0.00  0.00     0.318 HD
ENDROOT
BRANCH   1   3
ATOM      3  C6  ZIN AC000      -3.373  -2.299  -0.432  0.00  0.00     0.320 C 
BRANCH   3   4
ATOM      4  C4  ZIN AC000      -2.121  -1.747   0.200  0.00  0.00     0.292 C 
ATOM      5  O5  ZIN AC000      -1.330  -2.494   0.726  0.00  0.00    -0.263 OA
BRANCH   4   6
ATOM      6  O3  ZIN AC000      -1.885  -0.425   0.180  0.00  0.00    -0.320 OA
BRANCH   6   7
ATOM      7  C2  ZIN AC000      -0.660   0.035   0.808  0.00  0.00     0.174 C 
ATOM      8  C1  ZIN AC000      -0.565   1.557   0.685  0.00  0.00     0.034 C 
ENDBRANCH   6   7
ENDBRANCH   4   6
ENDBRANCH   3   4
BRANCH   3   9
ATOM      9  C8  ZIN AC000      -4.600  -1.693   0.253  0.00  0.00     0.051 C 
BRANCH   9  10
ATOM     10  C9  ZIN AC000      -5.867  -2.156  -0.469  0.00  0.00     0.041 C 
BRANCH  10  11
ATOM     11  C10 ZIN AC000      -7.076  -1.560   0.205  0.00  0.00    -0.058 A 
ATOM     12  C15 ZIN AC000      -7.565  -0.335  -0.210  0.00  0.00     0.007 A 
ATOM     13  C14 ZIN AC000      -8.676   0.210   0.406  0.00  0.00     0.001 A 
ATOM     14  C13 ZIN AC000      -9.293  -0.465   1.443  0.00  0.00     0.000 A 
ATOM     15  C12 ZIN AC000      -8.800  -1.687   1.861  0.00  0.00     0.001 A 
ATOM     16  C11 ZIN AC000      -7.692  -2.235   1.243  0.00  0.00     0.007 A 
ENDBRANCH  10  11
ENDBRANCH   9  10
ENDBRANCH   3   9
ENDBRANCH   1   3
BRANCH   1  17
ATOM     17  C17 ZIN AC000      -2.640  -4.415  -1.352  0.00  0.00     0.308 C 
ATOM     18  C19 ZIN AC000      -1.158  -4.465  -0.975  0.00  0.00     0.053 C 
BRANCH  17  19
ATOM     19  C20 ZIN AC000      -3.156  -5.817  -1.547  0.00  0.00     0.254 C 
ATOM     20  O21 ZIN AC000      -3.685  -6.402  -0.625  0.00  0.00    -0.271 OA
ATOM     21  N22 ZIN AC000      -3.031  -6.421  -2.745  0.00  0.00    -0.330 N 
ATOM     22  C34 ZIN AC000      -3.559  -7.742  -3.082  0.00  0.00     0.092 C 
ATOM     23  C23 ZIN AC000      -2.339  -5.857  -3.908  0.00  0.00     0.189 C 
ATOM     24  C29 ZIN AC000      -2.888  -8.187  -4.397  0.00  0.00     0.011 C 
ATOM     25  C33 ZIN AC000      -5.085  -7.686  -3.368  0.00  0.00     0.026 C 
ATOM     26  C28 ZIN AC000      -2.465  -6.860  -5.064  0.00  0.00     0.043 C 
ATOM     27  C31 ZIN AC000      -4.001  -8.820  -5.256  0.00  0.00     0.007 C 
ATOM     28  C32 ZIN AC000      -5.292  -8.095  -4.835  0.00  0.00     0.002 C 
BRANCH  23  29
ATOM     29  C25 ZIN AC000      -2.978  -4.548  -4.295  0.00  0.00     0.197 C 
ATOM     30  O26 ZIN AC000      -2.441  -3.828  -5.120  0.00  0.00    -0.646 OA
ATOM     31  O27 ZIN AC000      -4.031  -4.208  -3.783  0.00  0.00    -0.646 OA
ENDBRANCH  23  29
ENDBRANCH  17  19
ENDBRANCH   1  17
TORSDOF 10
