REMARK  2 active torsions:
REMARK  status: ('A' for Active; 'I' for Inactive)
REMARK    1  A    between atoms: N1_1  and  C5_5 
REMARK    2  A    between atoms: C5_5  and  C6_6 
ROOT
ATOM      1  N1  <0> d          -0.012   1.005   0.008  0.00  0.00    -0.070 N 
ATOM      2  H2  <0> d           0.002  -0.004   0.002  0.00  0.00     0.274 HD
ATOM      3  H3  <0> d           0.935   1.354   0.000  0.00  0.00     0.274 HD
ATOM      4  H4  <0> d          -0.500   1.339  -0.810  0.00  0.00     0.274 HD
ENDROOT
BRANCH   1   5
ATOM      5  C5  <0> d          -0.699   1.479   1.216  0.00  0.00     0.342 C 
BRANCH   5   6
ATOM      6  C6  <0> d          -0.720   2.985   1.224  0.00  0.00     0.199 C 
ATOM      7  O7  <0> d          -0.209   3.607   0.308  0.00  0.00    -0.647 OA
ATOM      8  O8  <0> d          -1.247   3.583   2.147  0.00  0.00    -0.647 OA
ENDBRANCH   5   6
ENDBRANCH   1   5
TORSDOF 2
