REMARK  15 active torsions:
REMARK  status: ('A' for Active; 'I' for Inactive)
REMARK    1  A    between atoms: C2_2  and  O4_4 
REMARK    2  A    between atoms: O4_4  and  C5_5 
REMARK    3  A    between atoms: C5_5  and  C7_7 
REMARK    4  A    between atoms: C7_7  and  C8_8 
REMARK    5  A    between atoms: C8_8  and  C9_9 
REMARK    6  A    between atoms: C9_9  and  C10_10 
REMARK    7  A    between atoms: C11_11  and  C12_12 
REMARK    8  A    between atoms: C12_12  and  C13_13 
REMARK    9  A    between atoms: C15_14  and  C17_15 
REMARK   10  A    between atoms: C18_16  and  C19_17 
REMARK   11  A    between atoms: C19_17  and  C22_20 
REMARK   12  A    between atoms: C22_20  and  O23_21 
REMARK   13  A    between atoms: O23_21  and  C24_22 
REMARK   14  A    between atoms: C30_28  and  O32_29 
REMARK   15  A    between atoms: C34_31  and  O36_32 
ROOT
ATOM      1  C13 ZIN AC000      -6.562  -7.331  -0.038  0.00  0.00     0.028 C 
ATOM      2  C15 ZIN AC000      -7.198  -7.178   1.359  0.00  0.00     0.043 C 
ATOM      3  C30 ZIN AC000      -7.815  -8.568   1.651  0.00  0.00     0.128 C 
ATOM      4  C33 ZIN AC000      -6.768  -9.539   1.051  0.00  0.00     0.064 C 
ATOM      5  C34 ZIN AC000      -6.289  -8.832  -0.235  0.00  0.00     0.125 C 
ENDROOT
BRANCH   2   6
ATOM      6  C17 ZIN AC000      -8.268  -6.117   1.339  0.00  0.00    -0.017 C 
ATOM      7  C18 ZIN AC000      -8.161  -5.064   2.111  0.00  0.00     0.049 C 
BRANCH   7   8
ATOM      8  C19 ZIN AC000      -9.231  -4.003   2.090  0.00  0.00     0.283 C 
ATOM      9  F20 ZIN AC000     -10.227  -4.362   1.175  0.00  0.00    -0.199 F 
ATOM     10  F21 ZIN AC000      -9.793  -3.882   3.366  0.00  0.00    -0.199 F 
BRANCH   8  11
ATOM     11  C22 ZIN AC000      -8.615  -2.666   1.675  0.00  0.00     0.259 C 
BRANCH  11  12
ATOM     12  O23 ZIN AC000      -8.042  -2.790   0.372  0.00  0.00    -0.345 OA
BRANCH  12  13
ATOM     13  C24 ZIN AC000      -7.449  -1.683  -0.149  0.00  0.00     0.069 A 
ATOM     14  C29 ZIN AC000      -6.872  -1.733  -1.410  0.00  0.00     0.037 A 
ATOM     15  C28 ZIN AC000      -6.275  -0.605  -1.940  0.00  0.00     0.003 A 
ATOM     16  C27 ZIN AC000      -6.242   0.569  -1.210  0.00  0.00     0.000 A 
ATOM     17  C26 ZIN AC000      -6.811   0.619   0.049  0.00  0.00     0.003 A 
ATOM     18  C25 ZIN AC000      -7.415  -0.504   0.581  0.00  0.00     0.037 A 
ENDBRANCH  12  13
ENDBRANCH  11  12
ENDBRANCH   8  11
ENDBRANCH   7   8
ENDBRANCH   2   6
BRANCH   1  19
ATOM     19  C12 ZIN AC000      -5.251  -6.546  -0.106  0.00  0.00     0.034 C 
BRANCH  19  20
ATOM     20  C11 ZIN AC000      -4.695  -6.617  -1.505  0.00  0.00    -0.030 C 
ATOM     21  C10 ZIN AC000      -4.362  -5.518  -2.134  0.00  0.00    -0.031 C 
BRANCH  21  22
ATOM     22  C9  ZIN AC000      -4.369  -4.200  -1.403  0.00  0.00     0.027 C 
BRANCH  22  23
ATOM     23  C8  ZIN AC000      -3.013  -3.512  -1.578  0.00  0.00     0.013 C 
BRANCH  23  24
ATOM     24  C7  ZIN AC000      -3.020  -2.174  -0.836  0.00  0.00     0.111 C 
BRANCH  24  25
ATOM     25  C5  ZIN AC000      -1.685  -1.497  -1.008  0.00  0.00     0.259 C 
ATOM     26  O6  ZIN AC000      -0.817  -2.030  -1.658  0.00  0.00    -0.265 OA
BRANCH  25  27
ATOM     27  O4  ZIN AC000      -1.460  -0.302  -0.440  0.00  0.00    -0.317 OA
BRANCH  27  28
ATOM     28  C2  ZIN AC000      -0.151   0.291  -0.648  0.00  0.00     0.123 C 
ATOM     29  C1  ZIN AC000      -0.274   1.816  -0.631  0.00  0.00     0.040 C 
ATOM     30  C3  ZIN AC000       0.795  -0.157   0.468  0.00  0.00     0.040 C 
ENDBRANCH  27  28
ENDBRANCH  25  27
ENDBRANCH  24  25
ENDBRANCH  23  24
ENDBRANCH  22  23
ENDBRANCH  21  22
ENDBRANCH  19  20
ENDBRANCH   1  19
BRANCH   3  31
ATOM     31  O32 ZIN AC000      -7.955  -8.775   3.058  0.00  0.00    -0.395 OA
ATOM     32  H63 ZIN AC000      -8.337  -9.632   3.293  0.00  0.00     0.210 HD
ENDBRANCH   3  31
BRANCH   5  33
ATOM     33  O36 ZIN AC000      -4.890  -9.056  -0.425  0.00  0.00    -0.395 OA
ATOM     34  H66 ZIN AC000      -4.652  -9.986  -0.533  0.00  0.00     0.210 HD
ENDBRANCH   5  33
TORSDOF 15
