REMARK  3 active torsions:
REMARK  status: ('A' for Active; 'I' for Inactive)
REMARK    1  A    between atoms: C2_2  and  C3_3 
REMARK    2  A    between atoms: C3_3  and  N4_4 
REMARK    3  A    between atoms: C9_9  and  C11_10 
ROOT
ATOM      1  C1  <0> d          -0.019   1.526   0.010  0.00  0.00     0.036 C 
ATOM      2  C2  <0> d           0.002  -0.004   0.002  0.00  0.00     0.106 C 
ATOM      3  C9  <0> d          -1.421  -0.588   0.208  0.00  0.00     0.193 C 
ATOM      4  N14 <0> d          -1.784  -0.514   1.626  0.00  0.00    -0.218 NA
ATOM      5  C15 <0> d          -2.296  -1.619   2.213  0.00  0.00     0.204 C 
ATOM      6  O16 <0> d          -3.351  -2.199   2.063  0.00  0.00    -0.280 OA
ATOM      7  C17 <0> d          -1.121  -1.891   3.114  0.00  0.00     0.132 C 
ATOM      8  C18 <0> d          -0.647  -0.555   2.554  0.00  0.00     0.198 C 
ATOM      9  S20 <0> d           0.845  -0.669   1.498  0.00  0.00     0.174 S 
ATOM     10  O21 <0> d           1.187  -2.033   1.292  0.00  0.00    -0.225 OA
ATOM     11  O22 <0> d           1.827   0.255   1.948  0.00  0.00    -0.225 OA
ENDROOT
BRANCH   2  12
ATOM     12  C3  <0> d           0.642  -0.539  -1.280  0.00  0.00     0.179 C 
BRANCH  12  13
ATOM     13  N4  <0> d           1.970   0.056  -1.448  0.00  0.00    -0.260 N 
ATOM     14  N8  <0> d           2.235   1.315  -1.469  0.00  0.00    -0.067 NA
ATOM     15  N7  <0> d           3.498   1.500  -1.629  0.00  0.00    -0.143 NA
ATOM     16  C6  <0> d           4.101   0.310  -1.729  0.00  0.00     0.161 A 
ATOM     17  C5  <0> d           3.128  -0.624  -1.614  0.00  0.00     0.135 A 
ENDBRANCH  12  13
ENDBRANCH   2  12
BRANCH   3  18
ATOM     18  C11 <0> d          -2.411   0.207  -0.604  0.00  0.00     0.193 C 
ATOM     19  O12 <0> d          -2.664  -0.123  -1.750  0.00  0.00    -0.647 OA
ATOM     20  O13 <0> d          -2.961   1.179  -0.114  0.00  0.00    -0.647 OA
ENDBRANCH   3  18
TORSDOF 3
