REMARK  11 active torsions:
REMARK  status: ('A' for Active; 'I' for Inactive)
REMARK    1  A    between atoms: C2_2  and  C3_3 
REMARK    2  A    between atoms: C3_3  and  C4_4 
REMARK    3  A    between atoms: C4_4  and  N5_5 
REMARK    4  A    between atoms: N5_5  and  C7_7 
REMARK    5  A    between atoms: N5_5  and  C11_11 
REMARK    6  A    between atoms: C7_7  and  C8_8 
REMARK    7  A    between atoms: C8_8  and  C9_9 
REMARK    8  A    between atoms: C11_11  and  C12_12 
REMARK    9  A    between atoms: C12_12  and  O14_13 
REMARK   10  A    between atoms: C12_12  and  C15_14 
REMARK   11  A    between atoms: C30_29  and  C31_30 
ROOT
ATOM      1  C15 ZIN AC000      -3.854  -5.919   0.494  0.00  0.00    -0.014 A 
ATOM      2  C16 ZIN AC000      -3.866  -6.456   1.764  0.00  0.00     0.034 A 
ATOM      3  C17 ZIN AC000      -4.180  -7.792   1.960  0.00  0.00     0.035 A 
ATOM      4 Cl18 ZIN AC000      -4.191  -8.450   3.567  0.00  0.00    -0.084 Cl
ATOM      5  C19 ZIN AC000      -4.486  -8.602   0.885  0.00  0.00     0.037 A 
ATOM      6  C20 ZIN AC000      -4.478  -8.075  -0.405  0.00  0.00    -0.012 A 
ATOM      7  C21 ZIN AC000      -4.165  -6.719  -0.605  0.00  0.00    -0.005 A 
ATOM      8  C22 ZIN AC000      -4.230  -6.427  -2.053  0.00  0.00    -0.013 A 
ATOM      9  C23 ZIN AC000      -4.011  -5.257  -2.777  0.00  0.00     0.015 A 
ATOM     10  C24 ZIN AC000      -4.142  -5.261  -4.151  0.00  0.00     0.024 A 
ATOM     11  C25 ZIN AC000      -4.490  -6.424  -4.821  0.00  0.00     0.035 A 
ATOM     12 Cl26 ZIN AC000      -4.650  -6.409  -6.550  0.00  0.00    -0.084 Cl
ATOM     13  C27 ZIN AC000      -4.710  -7.594  -4.120  0.00  0.00     0.037 A 
ATOM     14  C28 ZIN AC000      -4.583  -7.606  -2.733  0.00  0.00    -0.012 A 
ATOM     15  C29 ZIN AC000      -4.755  -8.675  -1.727  0.00  0.00    -0.013 A 
ATOM     16  C30 ZIN AC000      -5.100  -9.966  -1.972  0.00  0.00     0.024 C 
ENDROOT
BRANCH   1  17
ATOM     17  C12 ZIN AC000      -3.511  -4.465   0.293  0.00  0.00     0.178 C 
BRANCH  17  18
ATOM     18  C11 ZIN AC000      -2.020  -4.332  -0.027  0.00  0.00     0.271 C 
BRANCH  18  19
ATOM     19  N5  ZIN AC000      -1.731  -2.956  -0.450  0.00  0.00    -0.068 N 
ATOM     20  H6  ZIN AC000      -2.365  -2.691  -1.190  0.00  0.00     0.280 HD
BRANCH  19  21
ATOM     21  C4  ZIN AC000      -1.903  -2.046   0.690  0.00  0.00     0.235 C 
BRANCH  21  22
ATOM     22  C3  ZIN AC000      -1.661  -0.606   0.235  0.00  0.00     0.027 C 
BRANCH  22  23
ATOM     23  C2  ZIN AC000      -1.839   0.341   1.423  0.00  0.00    -0.003 C 
ATOM     24  C1  ZIN AC000      -1.597   1.782   0.968  0.00  0.00     0.005 C 
ENDBRANCH  22  23
ENDBRANCH  21  22
ENDBRANCH  19  21
BRANCH  19  25
ATOM     25  C7  ZIN AC000      -0.348  -2.874  -0.938  0.00  0.00     0.235 C 
BRANCH  25  26
ATOM     26  C8  ZIN AC000      -0.180  -3.791  -2.151  0.00  0.00     0.027 C 
BRANCH  26  27
ATOM     27  C9  ZIN AC000       1.220  -3.605  -2.741  0.00  0.00    -0.003 C 
ATOM     28  C10 ZIN AC000       1.388  -4.522  -3.954  0.00  0.00     0.005 C 
ENDBRANCH  26  27
ENDBRANCH  25  26
ENDBRANCH  19  25
ENDBRANCH  18  19
ENDBRANCH  17  18
BRANCH  17  29
ATOM     29  O14 ZIN AC000      -3.808  -3.737   1.486  0.00  0.00    -0.389 OA
ATOM     30  H58 ZIN AC000      -3.321  -4.040   2.265  0.00  0.00     0.210 HD
ENDBRANCH  17  29
ENDBRANCH   1  17
BRANCH  16  31
ATOM     31  C31 ZIN AC000      -5.519 -10.837  -0.865  0.00  0.00    -0.035 A 
ATOM     32  C37 ZIN AC000      -5.043 -12.151  -0.784  0.00  0.00     0.013 A 
ATOM     33  C36 ZIN AC000      -5.437 -12.960   0.260  0.00  0.00     0.024 A 
ATOM     34  C34 ZIN AC000      -6.311 -12.479   1.222  0.00  0.00     0.034 A 
ATOM     35  C33 ZIN AC000      -6.791 -11.182   1.146  0.00  0.00     0.024 A 
ATOM     36 Cl35 ZIN AC000      -6.807 -13.508   2.529  0.00  0.00    -0.084 Cl
ATOM     37  C32 ZIN AC000      -6.402 -10.359   0.111  0.00  0.00     0.013 A 
ENDBRANCH  16  31
TORSDOF 11
