REMARK  6 active torsions:
REMARK  status: ('A' for Active; 'I' for Inactive)
REMARK    1  A    between atoms: O2_2  and  C3_3 
REMARK    2  A    between atoms: C4_4  and  C5_5 
REMARK       I    between atoms: C5_5  and  N6_6 
REMARK    3  A    between atoms: C15_15  and  O16_16 
REMARK    4  A    between atoms: O16_16  and  C17_17 
REMARK    5  A    between atoms: C20_20  and  N21_21 
REMARK       I    between atoms: N21_21  and  C22_22 
REMARK       I    between atoms: C22_22  and  N24_24 
REMARK    6  A    between atoms: N24_24  and  C25_25 
ROOT
ATOM      1  C3  ZIN AC000      -1.256  -0.547  -0.022  0.00  0.00     0.086 A 
ATOM      2  C4  ZIN AC000      -1.288  -1.958  -0.033  0.00  0.00     0.066 A 
ATOM      3  C8  ZIN AC000      -2.502  -2.630  -0.017  0.00  0.00     0.036 A 
ATOM      4  C9  ZIN AC000      -3.693  -1.898   0.009  0.00  0.00     0.028 A 
ATOM      5  C10 ZIN AC000      -3.654  -0.481   0.020  0.00  0.00     0.072 A 
ATOM      6  C11 ZIN AC000      -2.412   0.176   0.010  0.00  0.00     0.070 A 
ATOM      7  N12 ZIN AC000      -4.795   0.217   0.046  0.00  0.00    -0.260 NA
ATOM      8  C13 ZIN AC000      -5.966  -0.376   0.063  0.00  0.00     0.120 A 
ATOM      9  C14 ZIN AC000      -6.088  -1.759   0.053  0.00  0.00     0.057 A 
ATOM     10  C15 ZIN AC000      -4.950  -2.548   0.026  0.00  0.00     0.090 A 
ENDROOT
BRANCH  10  11
ATOM     11  O16 ZIN AC000      -5.038  -3.900   0.016  0.00  0.00    -0.310 OA
BRANCH  11  12
ATOM     12  C17 ZIN AC000      -6.271  -4.460   0.135  0.00  0.00     0.077 A 
ATOM     13  C30 ZIN AC000      -6.658  -5.036   1.336  0.00  0.00     0.063 A 
ATOM     14  C28 ZIN AC000      -7.913  -5.602   1.459  0.00  0.00     0.063 A 
ATOM     15  C20 ZIN AC000      -8.782  -5.603   0.375  0.00  0.00     0.058 A 
ATOM     16 Cl29 ZIN AC000      -8.400  -6.317   2.964  0.00  0.00    -0.082 Cl
ATOM     17  C19 ZIN AC000      -8.392  -5.031  -0.828  0.00  0.00     0.034 A 
ATOM     18  C18 ZIN AC000      -7.139  -4.462  -0.948  0.00  0.00     0.039 A 
BRANCH  15  19
ATOM     19  N21 ZIN AC000     -10.053  -6.181   0.496  0.00  0.00    -0.307 N 
ATOM     20  C22 ZIN AC000     -10.609  -6.813  -0.556  0.00  0.00     0.321 C 
ATOM     21  O23 ZIN AC000     -10.043  -6.816  -1.633  0.00  0.00    -0.247 OA
ATOM     22  N24 ZIN AC000     -11.792  -7.443  -0.416  0.00  0.00    -0.338 N 
ATOM     23  H43 ZIN AC000     -12.244  -7.441   0.443  0.00  0.00     0.164 HD
ATOM     24  H42 ZIN AC000     -10.533  -6.126   1.337  0.00  0.00     0.170 HD
BRANCH  22  25
ATOM     25  C25 ZIN AC000     -12.397  -8.131  -1.560  0.00  0.00     0.086 A 
ATOM     26  C27 ZIN AC000     -13.916  -8.311  -1.554  0.00  0.00     0.027 A 
ATOM     27  C26 ZIN AC000     -13.002  -9.514  -1.313  0.00  0.00     0.027 A 
ENDBRANCH  22  25
ENDBRANCH  15  19
ENDBRANCH  11  12
ENDBRANCH  10  11
BRANCH   2  28
ATOM     28  C5  ZIN AC000      -0.026  -2.721  -0.060  0.00  0.00     0.252 C 
ATOM     29  N6  ZIN AC000      -0.054  -4.068  -0.071  0.00  0.00    -0.366 N 
ATOM     30  H34 ZIN AC000      -0.903  -4.536  -0.060  0.00  0.00     0.159 HD
ATOM     31  H35 ZIN AC000       0.776  -4.570  -0.089  0.00  0.00     0.159 HD
ATOM     32  O7  ZIN AC000       1.039  -2.134  -0.073  0.00  0.00    -0.268 OA
ENDBRANCH   2  28
BRANCH   1  33
ATOM     33  O2  ZIN AC000      -0.062   0.097  -0.037  0.00  0.00    -0.355 OA
ATOM     34  C1  ZIN AC000      -0.095   1.525  -0.019  0.00  0.00     0.210 C 
ENDBRANCH   1  33
TORSDOF 6
