REMARK  7 active torsions:
REMARK  status: ('A' for Active; 'I' for Inactive)
REMARK    1  A    between atoms: S2_2  and  O5_5 
REMARK    2  A    between atoms: O5_5  and  C6_6 
REMARK    3  A    between atoms: C9_9  and  C10_10 
REMARK    4  A    between atoms: C10_10  and  C11_11 
REMARK    5  A    between atoms: C10_10  and  C22_22 
REMARK    6  A    between atoms: C14_14  and  O15_15 
REMARK    7  A    between atoms: O15_15  and  S16_16 
ROOT
ATOM      1  C10 ZIN AC000      -5.315  -1.020   2.627  0.00  0.00     0.103 C 
ENDROOT
BRANCH   1   2
ATOM      2  C9  ZIN AC000      -4.182  -0.112   2.224  0.00  0.00    -0.044 A 
ATOM      3  C8  ZIN AC000      -4.446   1.050   1.522  0.00  0.00     0.011 A 
ATOM      4  C7  ZIN AC000      -3.409   1.885   1.152  0.00  0.00     0.039 A 
ATOM      5  C6  ZIN AC000      -2.103   1.557   1.485  0.00  0.00     0.092 A 
ATOM      6  C29 ZIN AC000      -1.841   0.387   2.184  0.00  0.00     0.039 A 
ATOM      7  C28 ZIN AC000      -2.881  -0.442   2.557  0.00  0.00     0.011 A 
BRANCH   5   8
ATOM      8  O5  ZIN AC000      -1.081   2.376   1.122  0.00  0.00    -0.214 OA
BRANCH   8   9
ATOM      9  S2  ZIN AC000      -0.490   2.060  -0.244  0.00  0.00     0.256 S 
ATOM     10  O1  ZIN AC000      -0.323   0.616  -0.305  0.00  0.00    -0.572 OA
ATOM     11  O3  ZIN AC000       0.783   2.760  -0.322  0.00  0.00    -0.572 OA
ATOM     12  O4  ZIN AC000      -1.440   2.542  -1.235  0.00  0.00    -0.572 OA
ENDBRANCH   8   9
ENDBRANCH   5   8
ENDBRANCH   1   2
BRANCH   1  13
ATOM     13  C11 ZIN AC000      -5.167  -2.348   1.929  0.00  0.00    -0.044 A 
ATOM     14  C21 ZIN AC000      -4.396  -2.443   0.785  0.00  0.00     0.011 A 
ATOM     15  C20 ZIN AC000      -4.255  -3.660   0.145  0.00  0.00     0.039 A 
ATOM     16  C14 ZIN AC000      -4.896  -4.784   0.646  0.00  0.00     0.092 A 
ATOM     17  C13 ZIN AC000      -5.673  -4.684   1.791  0.00  0.00     0.039 A 
ATOM     18  C12 ZIN AC000      -5.806  -3.466   2.429  0.00  0.00     0.011 A 
BRANCH  16  19
ATOM     19  O15 ZIN AC000      -4.763  -5.980   0.016  0.00  0.00    -0.214 OA
BRANCH  19  20
ATOM     20  S16 ZIN AC000      -5.816  -6.238  -1.052  0.00  0.00     0.256 S 
ATOM     21  O17 ZIN AC000      -5.760  -7.658  -1.362  0.00  0.00    -0.572 OA
ATOM     22  O18 ZIN AC000      -7.097  -5.854  -0.480  0.00  0.00    -0.572 OA
ATOM     23  O19 ZIN AC000      -5.461  -5.415  -2.198  0.00  0.00    -0.572 OA
ENDBRANCH  19  20
ENDBRANCH  16  19
ENDBRANCH   1  13
BRANCH   1  24
ATOM     24  C22 ZIN AC000      -5.284  -1.232   4.119  0.00  0.00     0.047 A 
ATOM     25  N27 ZIN AC000      -6.043  -0.486   4.898  0.00  0.00    -0.265 NA
ATOM     26  C26 ZIN AC000      -6.051  -0.639   6.208  0.00  0.00     0.117 A 
ATOM     27  C25 ZIN AC000      -5.250  -1.587   6.815  0.00  0.00     0.019 A 
ATOM     28  C24 ZIN AC000      -4.434  -2.386   6.028  0.00  0.00     0.003 A 
ATOM     29  C23 ZIN AC000      -4.456  -2.200   4.654  0.00  0.00     0.028 A 
ENDBRANCH   1  24
TORSDOF 7
