REMARK  2 active torsions:
REMARK  status: ('A' for Active; 'I' for Inactive)
REMARK       I    between atoms: C2_2  and  N3_3 
REMARK       I    between atoms: C2_2  and  N11_11 
REMARK    1  A    between atoms: N3_3  and  C4_4 
REMARK    2  A    between atoms: N11_11  and  C12_12 
ROOT
ATOM      1  O1  ZIN AC000      -0.074   0.023  -0.293  0.00  0.00    -0.247 OA
ATOM      2  C2  ZIN AC000      -0.089   1.230  -0.152  0.00  0.00     0.325 C 
ATOM      3  N3  ZIN AC000       1.066   1.925  -0.174  0.00  0.00    -0.309 N 
ATOM      4  N11 ZIN AC000      -1.260   1.875   0.022  0.00  0.00    -0.309 N 
ATOM      5  H20 ZIN AC000       1.050   2.894  -0.129  0.00  0.00     0.170 HD
ATOM      6  H25 ZIN AC000      -1.279   2.844   0.060  0.00  0.00     0.170 HD
ENDROOT
BRANCH   3   7
ATOM      7  C4  ZIN AC000       2.288   1.249  -0.263  0.00  0.00     0.036 A 
ATOM      8  C10 ZIN AC000       2.388   0.089  -1.022  0.00  0.00     0.031 A 
ATOM      9  C9  ZIN AC000       3.596  -0.573  -1.111  0.00  0.00     0.026 A 
ATOM     10  C7  ZIN AC000       4.705  -0.089  -0.439  0.00  0.00     0.034 A 
ATOM     11  C6  ZIN AC000       4.606   1.063   0.322  0.00  0.00     0.026 A 
ATOM     12 Cl8  ZIN AC000       6.220  -0.928  -0.549  0.00  0.00    -0.084 Cl
ATOM     13  C5  ZIN AC000       3.401   1.732   0.411  0.00  0.00     0.031 A 
ENDBRANCH   3   7
BRANCH   4  14
ATOM     14  C12 ZIN AC000      -2.448   1.145   0.148  0.00  0.00     0.038 A 
ATOM     15  C19 ZIN AC000      -2.439  -0.098   0.768  0.00  0.00     0.055 A 
ATOM     16  C17 ZIN AC000      -3.614  -0.813   0.895  0.00  0.00     0.058 A 
ATOM     17  C15 ZIN AC000      -4.798  -0.296   0.396  0.00  0.00     0.055 A 
ATOM     18 Cl18 ZIN AC000      -3.606  -2.364   1.675  0.00  0.00    -0.082 Cl
ATOM     19  C14 ZIN AC000      -4.808   0.939  -0.227  0.00  0.00     0.028 A 
ATOM     20 Cl16 ZIN AC000      -6.272  -1.200   0.550  0.00  0.00    -0.083 Cl
ATOM     21  C13 ZIN AC000      -3.636   1.661  -0.352  0.00  0.00     0.031 A 
ENDBRANCH   4  14
TORSDOF 2
