REMARK  5 active torsions:
REMARK  status: ('A' for Active; 'I' for Inactive)
REMARK       I    between atoms: C3_3  and  N4_4 
REMARK       I    between atoms: C3_3  and  N7_7 
REMARK    1  A    between atoms: N7_7  and  C8_8 
REMARK    2  A    between atoms: C8_8  and  C9_9 
REMARK    3  A    between atoms: C9_9  and  S10_10 
REMARK    4  A    between atoms: S10_10  and  C11_11 
REMARK    5  A    between atoms: C11_11  and  C12_12 
ROOT
ATOM      1  C1  <0> d           1.228  -2.663  -2.093  0.00  0.00     0.198 C 
ATOM      2  N2  <0> d           0.587  -1.945  -0.989  0.00  0.00    -0.112 NA
ATOM      3  C3  <0> d           0.650  -0.645  -0.934  0.00  0.00     0.704 C 
ATOM      4  N4  <0> d           0.139   0.024   0.159  0.00  0.00    -0.125 N 
ATOM      5  C5  <0> d          -0.428  -0.670   1.175  0.00  0.00     0.196 C 
ATOM      6  N6  <0> d          -0.903  -1.253   2.027  0.00  0.00    -0.171 NA
ATOM      7  N7  <0> d           1.225   0.060  -1.964  0.00  0.00    -0.223 N 
ATOM      8  H22 <0> d           0.186   0.992   0.201  0.00  0.00     0.197 HD
ATOM      9  H23 <0> d           1.516  -0.403  -2.766  0.00  0.00     0.177 HD
ENDROOT
BRANCH   7  10
ATOM     10  C8  <0> d           1.400   1.510  -1.852  0.00  0.00     0.148 C 
BRANCH  10  11
ATOM     11  C9  <0> d           2.169   2.027  -3.070  0.00  0.00     0.094 C 
BRANCH  11  12
ATOM     12  S10 <0> d           2.385   3.822  -2.931  0.00  0.00    -0.161 SA
BRANCH  12  13
ATOM     13  C11 <0> d           3.302   4.241  -4.439  0.00  0.00     0.133 C 
BRANCH  13  14
ATOM     14  C12 <0> d           3.564   5.724  -4.472  0.00  0.00     0.041 A 
ATOM     15  N18 <0> d           4.654   6.372  -3.957  0.00  0.00    -0.353 N 
ATOM     16  C17 <0> d           4.490   7.690  -4.205  0.00  0.00     0.180 A 
ATOM     17  H34 <0> d           5.406   5.962  -3.503  0.00  0.00     0.166 HD
ATOM     18  N15 <0> d           3.358   7.859  -4.833  0.00  0.00    -0.354 N 
ATOM     19  C13 <0> d           2.768   6.668  -5.010  0.00  0.00     0.029 A 
ATOM     20  H16 <0> d           3.001   8.712  -5.125  0.00  0.00     0.166 HD
ATOM     21  C14 <0> d           1.446   6.428  -5.692  0.00  0.00     0.070 C 
ENDBRANCH  13  14
ENDBRANCH  12  13
ENDBRANCH  11  12
ENDBRANCH  10  11
ENDBRANCH   7  10
TORSDOF 5
