REMARK  5 active torsions:
REMARK  status: ('A' for Active; 'I' for Inactive)
REMARK    1  A    between atoms: C6_6  and  C7_7 
REMARK    2  A    between atoms: C7_7  and  N8_8 
REMARK    3  A    between atoms: N11_11  and  C12_12 
REMARK    4  A    between atoms: C12_12  and  C14_13 
REMARK    5  A    between atoms: C12_12  and  C20_19 
ROOT
ATOM      1  N8  <0> d           1.444  -3.074   2.905  0.00  0.00     0.096 N 
ATOM      2  C9  <0> d           2.258  -3.554   1.779  0.00  0.00     0.303 C 
ATOM      3  C10 <0> d           3.712  -3.705   2.232  0.00  0.00     0.304 C 
ATOM      4  N11 <0> d           3.776  -4.641   3.363  0.00  0.00     0.105 N 
ATOM      5  C27 <0> d           2.962  -4.160   4.488  0.00  0.00     0.304 C 
ATOM      6  C28 <0> d           1.508  -4.010   4.035  0.00  0.00     0.303 C 
ENDROOT
BRANCH   4   7
ATOM      7  C12 <0> d           5.166  -4.870   3.778  0.00  0.00     0.289 C 
BRANCH   7   8
ATOM      8  C14 <0> d           5.192  -5.833   4.937  0.00  0.00    -0.021 A 
ATOM      9  C19 <0> d           6.069  -5.630   5.986  0.00  0.00     0.010 A 
ATOM     10  C18 <0> d           6.089  -6.511   7.051  0.00  0.00     0.001 A 
ATOM     11  C17 <0> d           5.239  -7.601   7.063  0.00  0.00     0.000 A 
ATOM     12  C16 <0> d           4.365  -7.807   6.011  0.00  0.00     0.001 A 
ATOM     13  C15 <0> d           4.342  -6.924   4.949  0.00  0.00     0.010 A 
ENDBRANCH   7   8
BRANCH   7  14
ATOM     14  C20 <0> d           5.946  -5.450   2.626  0.00  0.00    -0.021 A 
ATOM     15  C26 <0> d           7.242  -5.032   2.390  0.00  0.00     0.011 A 
ATOM     16  C25 <0> d           7.960  -5.568   1.337  0.00  0.00     0.024 A 
ATOM     17  C23 <0> d           7.377  -6.513   0.512  0.00  0.00     0.034 A 
ATOM     18  C22 <0> d           6.077  -6.926   0.746  0.00  0.00     0.024 A 
ATOM     19 Cl24 <0> d           8.274  -7.180  -0.815  0.00  0.00    -0.084 Cl
ATOM     20  C21 <0> d           5.362  -6.394   1.803  0.00  0.00     0.011 A 
ENDBRANCH   7  14
ENDBRANCH   4   7
BRANCH   1  21
ATOM     21  C7  <0> d           0.054  -2.844   2.489  0.00  0.00     0.311 C 
BRANCH  21  22
ATOM     22  C6  <0> d           0.037  -2.084   1.188  0.00  0.00    -0.030 A 
ATOM     23  C5  <0> d           0.040  -2.768  -0.013  0.00  0.00     0.009 A 
ATOM     24  C4  <0> d           0.025  -2.071  -1.206  0.00  0.00     0.001 A 
ATOM     25  C3  <0> d           0.006  -0.689  -1.199  0.00  0.00     0.007 A 
ATOM     26  C2  <0> d           0.002  -0.004   0.002  0.00  0.00    -0.061 A 
ATOM     27  C1  <0> d          -0.018   1.503   0.010  0.00  0.00     0.048 C 
ATOM     28  C29 <0> d           0.023  -0.702   1.196  0.00  0.00     0.015 A 
ENDBRANCH  21  22
ENDBRANCH   1  21
TORSDOF 5
