REMARK  4 active torsions:
REMARK  status: ('A' for Active; 'I' for Inactive)
REMARK    1  A    between atoms: C3_3  and  C4_4 
REMARK    2  A    between atoms: C4_4  and  C6_5 
REMARK    3  A    between atoms: C4_4  and  N11_10 
REMARK    4  A    between atoms: C13_12  and  C14_13 
ROOT
ATOM      1  N1  <0> d           0.018  -1.140  -0.004  0.00  0.00    -0.197 NA
ATOM      2  C2  <0> d           0.002  -0.004   0.002  0.00  0.00     0.061 C 
ATOM      3  C3  <0> d          -0.018   1.468   0.010  0.00  0.00     0.151 C 
ENDROOT
BRANCH   3   4
ATOM      4  C4  <0> d           1.417   1.997  -0.001  0.00  0.00     0.126 C 
BRANCH   4   5
ATOM      5  C6  <0> d           1.400   3.521   0.133  0.00  0.00     0.011 C 
ATOM      6  C10 <0> d           2.837   4.081   0.125  0.00  0.00     0.007 C 
ATOM      7  C9  <0> d           2.862   5.244   1.132  0.00  0.00     0.000 C 
ATOM      8  C8  <0> d           1.439   5.351   1.717  0.00  0.00     0.000 C 
ATOM      9  C7  <0> d           0.838   3.938   1.516  0.00  0.00     0.007 C 
ENDBRANCH   4   5
BRANCH   4  10
ATOM     10  N11 <0> d           2.066   1.625  -1.261  0.00  0.00    -0.274 N 
ATOM     11  N24 <0> d           3.415   1.288  -1.420  0.00  0.00    -0.184 NA
ATOM     12  C23 <0> d           3.629   1.011  -2.679  0.00  0.00     0.154 A 
ATOM     13  C13 <0> d           2.413   1.175  -3.375  0.00  0.00     0.030 A 
ATOM     14  C12 <0> d           1.467   1.556  -2.465  0.00  0.00     0.128 A 
BRANCH  13  15
ATOM     15  C14 <0> d           2.201   0.972  -4.826  0.00  0.00     0.085 A 
ATOM     16  N22 <0> d           1.053   0.479  -5.286  0.00  0.00    -0.240 NA
ATOM     17  C21 <0> d           0.859   0.301  -6.579  0.00  0.00     0.236 A 
ATOM     18  N20 <0> d           1.773   0.585  -7.483  0.00  0.00    -0.224 NA
ATOM     19  C19 <0> d           2.955   1.078  -7.123  0.00  0.00     0.141 A 
ATOM     20  C15 <0> d           3.208   1.290  -5.753  0.00  0.00     0.041 A 
ATOM     21  N18 <0> d           4.079   1.462  -7.803  0.00  0.00    -0.350 N 
ATOM     22  C16 <0> d           4.563   1.828  -5.667  0.00  0.00     0.034 A 
ATOM     23  C17 <0> d           5.031   1.907  -6.924  0.00  0.00     0.091 A 
ATOM     24  H39 <0> d           4.185   1.425  -8.767  0.00  0.00     0.166 HD
ENDBRANCH  13  15
ENDBRANCH   4  10
ENDBRANCH   3   4
TORSDOF 4
