REMARK  12 active torsions:
REMARK  status: ('A' for Active; 'I' for Inactive)
REMARK    1  A    between atoms: C2_2  and  C3_3 
REMARK    2  A    between atoms: C3_3  and  C4_4 
REMARK    3  A    between atoms: C4_4  and  C5_5 
REMARK    4  A    between atoms: C5_5  and  C6_6 
REMARK    5  A    between atoms: C6_6  and  O8_7 
REMARK    6  A    between atoms: C6_6  and  C9_8 
REMARK    7  A    between atoms: C10_9  and  C11_10 
REMARK    8  A    between atoms: C13_11  and  O15_12 
REMARK    9  A    between atoms: C21_17  and  C22_18 
REMARK   10  A    between atoms: C22_18  and  C23_19 
REMARK   11  A    between atoms: C23_19  and  C24_20 
REMARK   12  A    between atoms: C24_20  and  C25_21 
ROOT
ATOM      1  C11 ZIN AC000       3.689  -5.843  -5.109  0.00  0.00     0.043 C 
ATOM      2  C13 ZIN AC000       5.183  -5.477  -5.178  0.00  0.00     0.128 C 
ATOM      3  C16 ZIN AC000       5.827  -6.599  -6.013  0.00  0.00     0.065 C 
ATOM      4  C17 ZIN AC000       4.972  -7.854  -5.773  0.00  0.00     0.136 C 
ATOM      5  O19 ZIN AC000       4.687  -8.478  -7.031  0.00  0.00    -0.350 OA
ATOM      6  C20 ZIN AC000       3.378  -8.842  -7.085  0.00  0.00     0.043 C 
ATOM      7  C21 ZIN AC000       2.878  -9.884  -7.716  0.00  0.00     0.005 C 
ATOM      8  C28 ZIN AC000       2.603  -7.816  -6.277  0.00  0.00     0.072 C 
ATOM      9  C29 ZIN AC000       3.627  -7.375  -5.177  0.00  0.00     0.031 C 
ENDROOT
BRANCH   1  10
ATOM     10  C10 ZIN AC000       3.094  -5.356  -3.813  0.00  0.00    -0.021 C 
ATOM     11  C9  ZIN AC000       2.071  -4.538  -3.829  0.00  0.00     0.001 C 
BRANCH  11  12
ATOM     12  C6  ZIN AC000       1.476  -4.051  -2.532  0.00  0.00     0.140 C 
BRANCH  12  13
ATOM     13  C5  ZIN AC000       1.455  -2.521  -2.524  0.00  0.00     0.036 C 
BRANCH  13  14
ATOM     14  C4  ZIN AC000       0.739  -2.027  -1.265  0.00  0.00     0.003 C 
BRANCH  14  15
ATOM     15  C3  ZIN AC000       0.718  -0.497  -1.257  0.00  0.00    -0.000 C 
BRANCH  15  16
ATOM     16  C2  ZIN AC000       0.002  -0.004   0.002  0.00  0.00    -0.005 C 
ATOM     17  C1  ZIN AC000      -0.019   1.526   0.010  0.00  0.00     0.005 C 
ENDBRANCH  15  16
ENDBRANCH  14  15
ENDBRANCH  13  14
ENDBRANCH  12  13
BRANCH  12  18
ATOM     18  O8  ZIN AC000       2.265  -4.522  -1.439  0.00  0.00    -0.392 OA
ATOM     19  H42 ZIN AC000       3.185  -4.224  -1.460  0.00  0.00     0.210 HD
ENDBRANCH  12  18
ENDBRANCH  11  12
ENDBRANCH   1  10
BRANCH   2  20
ATOM     20  O15 ZIN AC000       5.356  -4.213  -5.823  0.00  0.00    -0.395 OA
ATOM     21  H45 ZIN AC000       6.278  -3.932  -5.895  0.00  0.00     0.210 HD
ENDBRANCH   2  20
BRANCH   7  22
ATOM     22  C22 ZIN AC000       3.790 -10.812  -8.478  0.00  0.00     0.030 C 
BRANCH  22  23
ATOM     23  C23 ZIN AC000       3.590 -12.245  -7.980  0.00  0.00     0.014 C 
BRANCH  23  24
ATOM     24  C24 ZIN AC000       4.515 -13.187  -8.753  0.00  0.00     0.113 C 
BRANCH  24  25
ATOM     25  C25 ZIN AC000       4.318 -14.598  -8.263  0.00  0.00     0.172 C 
ATOM     26  O26 ZIN AC000       3.512 -14.829  -7.378  0.00  0.00    -0.648 OA
ATOM     27  O27 ZIN AC000       4.964 -15.509  -8.752  0.00  0.00    -0.648 OA
ENDBRANCH  24  25
ENDBRANCH  23  24
ENDBRANCH  22  23
ENDBRANCH   7  22
TORSDOF 12
