REMARK  8 active torsions:
REMARK  status: ('A' for Active; 'I' for Inactive)
REMARK    1  A    between atoms: C2_2  and  N3_3 
REMARK    2  A    between atoms: N3_3  and  C5_5 
REMARK    3  A    between atoms: N3_3  and  C7_7 
REMARK    4  A    between atoms: C7_7  and  C8_8 
REMARK    5  A    between atoms: C8_8  and  N9_9 
REMARK       I    between atoms: N9_9  and  C10_10 
REMARK    6  A    between atoms: C10_10  and  C12_12 
REMARK    7  A    between atoms: C16_16  and  N17_17 
REMARK    8  A    between atoms: C19_19  and  O20_20 
ROOT
ATOM      1  C12 ZIN AC000      -0.320  -5.485   3.599  0.00  0.00     0.067 A 
ATOM      2  C13 ZIN AC000      -0.908  -6.382   2.702  0.00  0.00     0.046 A 
ATOM      3  C14 ZIN AC000      -0.950  -7.724   3.000  0.00  0.00     0.061 A 
ATOM      4 Cl15 ZIN AC000      -1.681  -8.837   1.885  0.00  0.00    -0.082 Cl
ATOM      5  C16 ZIN AC000      -0.408  -8.194   4.196  0.00  0.00     0.050 A 
ATOM      6  C18 ZIN AC000       0.178  -7.310   5.093  0.00  0.00     0.068 A 
ATOM      7  C19 ZIN AC000       0.231  -5.959   4.800  0.00  0.00     0.086 A 
ENDROOT
BRANCH   1   8
ATOM      8  C10 ZIN AC000      -0.273  -4.048   3.282  0.00  0.00     0.254 C 
ATOM      9  N9  ZIN AC000      -0.803  -3.594   2.129  0.00  0.00    -0.355 N 
ATOM     10  H36 ZIN AC000      -1.214  -4.215   1.507  0.00  0.00     0.162 HD
ATOM     11  O11 ZIN AC000       0.243  -3.270   4.062  0.00  0.00    -0.268 OA
BRANCH   9  12
ATOM     12  C8  ZIN AC000      -0.756  -2.164   1.814  0.00  0.00     0.150 C 
BRANCH  12  13
ATOM     13  C7  ZIN AC000      -1.421  -1.919   0.458  0.00  0.00     0.254 C 
BRANCH  13  14
ATOM     14  N3  ZIN AC000      -1.374  -0.485   0.142  0.00  0.00    -0.070 N 
ATOM     15  H4  ZIN AC000      -1.792   0.039   0.895  0.00  0.00     0.279 HD
BRANCH  14  16
ATOM     16  C2  ZIN AC000       0.024  -0.066  -0.029  0.00  0.00     0.230 C 
ATOM     17  C1  ZIN AC000       0.082   1.451  -0.216  0.00  0.00     0.034 C 
ENDBRANCH  14  16
BRANCH  14  18
ATOM     18  C5  ZIN AC000      -2.116  -0.233  -1.101  0.00  0.00     0.230 C 
ATOM     19  C6  ZIN AC000      -3.600  -0.533  -0.879  0.00  0.00     0.034 C 
ENDBRANCH  14  18
ENDBRANCH  13  14
ENDBRANCH  12  13
ENDBRANCH   9  12
ENDBRANCH   1   8
BRANCH   7  20
ATOM     20  O20 ZIN AC000       0.803  -5.095   5.675  0.00  0.00    -0.355 OA
ATOM     21  C21 ZIN AC000       1.333  -5.648   6.881  0.00  0.00     0.210 C 
ENDBRANCH   7  20
BRANCH   5  22
ATOM     22  N17 ZIN AC000      -0.453  -9.553   4.491  0.00  0.00    -0.398 N 
ATOM     23  H38 ZIN AC000      -0.862 -10.172   3.866  0.00  0.00     0.156 HD
ATOM     24  H39 ZIN AC000      -0.076  -9.882   5.322  0.00  0.00     0.156 HD
ENDBRANCH   5  22
TORSDOF 8
