REMARK  8 active torsions:
REMARK  status: ('A' for Active; 'I' for Inactive)
REMARK    1  A    between atoms: O1_1  and  C2_2 
REMARK    2  A    between atoms: C2_2  and  C3_3 
REMARK    3  A    between atoms: C3_3  and  N4_4 
REMARK    4  A    between atoms: C6_6  and  O8_7 
REMARK    5  A    between atoms: C9_8  and  O11_9 
REMARK    6  A    between atoms: C12_10  and  O14_11 
REMARK    7  A    between atoms: C15_12  and  C17_13 
REMARK    8  A    between atoms: C17_13  and  O18_14 
ROOT
ATOM      1  N4  <0> d          -2.144  -0.047  -1.177  0.00  0.00     0.102 N 
ATOM      2  C5  <0> d          -1.807   1.355  -1.454  0.00  0.00     0.307 C 
ATOM      3  C6  <0> d          -2.448   1.783  -2.777  0.00  0.00     0.177 C 
ATOM      4  C9  <0> d          -3.966   1.613  -2.681  0.00  0.00     0.179 C 
ATOM      5  C12 <0> d          -4.288   0.154  -2.344  0.00  0.00     0.184 C 
ATOM      6  C15 <0> d          -3.594  -0.227  -1.034  0.00  0.00     0.277 C 
ENDROOT
BRANCH   1   7
ATOM      7  C3  <0> d          -1.433  -0.534   0.013  0.00  0.00     0.299 C 
BRANCH   7   8
ATOM      8  C2  <0> d          -0.005   0.016   0.015  0.00  0.00     0.194 C 
BRANCH   8   9
ATOM      9  O1  <0> d          -0.036   1.421   0.275  0.00  0.00    -0.399 OA
ATOM     10  H19 <0> d           0.837   1.837   0.291  0.00  0.00     0.209 HD
ENDBRANCH   8   9
ENDBRANCH   7   8
ENDBRANCH   1   7
BRANCH   6  11
ATOM     11  C17 <0> d          -3.896  -1.690  -0.704  0.00  0.00     0.202 C 
BRANCH  11  12
ATOM     12  O18 <0> d          -3.346  -2.013   0.575  0.00  0.00    -0.399 OA
ATOM     13  H31 <0> d          -3.501  -2.927   0.850  0.00  0.00     0.209 HD
ENDBRANCH  11  12
ENDBRANCH   6  11
BRANCH   5  14
ATOM     14  O14 <0> d          -5.701  -0.001  -2.199  0.00  0.00    -0.391 OA
ATOM     15  H28 <0> d          -6.205   0.226  -2.992  0.00  0.00     0.210 HD
ENDBRANCH   5  14
BRANCH   3  16
ATOM     16  O8  <0> d          -2.136   3.153  -3.036  0.00  0.00    -0.391 OA
ATOM     17  H26 <0> d          -1.189   3.335  -3.107  0.00  0.00     0.210 HD
ENDBRANCH   3  16
BRANCH   4  18
ATOM     18  O11 <0> d          -4.565   1.958  -3.932  0.00  0.00    -0.390 OA
ATOM     19  H27 <0> d          -4.398   2.869  -4.210  0.00  0.00     0.210 HD
ENDBRANCH   4  18
TORSDOF 8
