REMARK  5 active torsions:
REMARK  status: ('A' for Active; 'I' for Inactive)
REMARK    1  A    between atoms: C2_2  and  C3_3 
REMARK    2  A    between atoms: C3_3  and  S4_4 
REMARK    3  A    between atoms: S4_4  and  C5_5 
REMARK    4  A    between atoms: C10_10  and  N11_11 
REMARK       I    between atoms: N11_11  and  C12_12 
REMARK    5  A    between atoms: C12_12  and  O14_14 
ROOT
ATOM      1  C5  ZIN AC000       1.592  -2.688  -2.764  0.00  0.00     0.002 A 
ATOM      2  C6  ZIN AC000       2.050  -1.656  -3.581  0.00  0.00     0.021 A 
ATOM      3  C7  ZIN AC000       2.715  -1.937  -4.752  0.00  0.00     0.036 A 
ATOM      4  C8  ZIN AC000       2.934  -3.265  -5.127  0.00  0.00     0.103 A 
ATOM      5  N9  ZIN AC000       3.542  -3.844  -6.197  0.00  0.00    -0.062 NA
ATOM      6  C10 ZIN AC000       3.485  -5.146  -6.083  0.00  0.00     0.710 A 
ATOM      7  N16 ZIN AC000       2.834  -5.484  -4.930  0.00  0.00    -0.187 N 
ATOM      8  C17 ZIN AC000       2.472  -4.304  -4.302  0.00  0.00     0.080 A 
ATOM      9  C18 ZIN AC000       1.808  -4.010  -3.121  0.00  0.00     0.051 A 
ATOM     10  H32 ZIN AC000       2.658  -6.383  -4.611  0.00  0.00     0.184 HD
ENDROOT
BRANCH   6  11
ATOM     11  N11 ZIN AC000       4.006  -6.048  -6.996  0.00  0.00    -0.133 N 
ATOM     12  C12 ZIN AC000       3.889  -7.372  -6.776  0.00  0.00     0.378 C 
ATOM     13  O13 ZIN AC000       3.326  -7.775  -5.778  0.00  0.00    -0.238 OA
ATOM     14  H28 ZIN AC000       4.456  -5.726  -7.793  0.00  0.00     0.190 HD
BRANCH  12  15
ATOM     15  O14 ZIN AC000       4.396  -8.249  -7.663  0.00  0.00    -0.308 OA
ATOM     16  C15 ZIN AC000       4.234  -9.660  -7.362  0.00  0.00     0.215 C 
ENDBRANCH  12  15
ENDBRANCH   6  11
BRANCH   1  17
ATOM     17  S4  ZIN AC000       0.743  -2.311  -1.267  0.00  0.00    -0.130 SA
BRANCH  17  18
ATOM     18  C3  ZIN AC000       0.718  -0.497  -1.257  0.00  0.00     0.079 C 
BRANCH  18  19
ATOM     19  C2  ZIN AC000       0.002  -0.004   0.002  0.00  0.00     0.006 C 
ATOM     20  C1  ZIN AC000      -0.019   1.526   0.010  0.00  0.00     0.006 C 
ENDBRANCH  18  19
ENDBRANCH  17  18
ENDBRANCH   1  17
TORSDOF 5
