REMARK  1 active torsions:
REMARK  status: ('A' for Active; 'I' for Inactive)
REMARK    1  A    between atoms: C11_11  and  C12_12 
ROOT
ATOM      1  C1  ZIN AC000      -0.018   1.465   0.010  0.00  0.00     0.269 C 
ATOM      2  N2  ZIN AC000       0.002  -0.004   0.002  0.00  0.00    -0.074 N 
ATOM      3  H3  ZIN AC000      -0.945  -0.351   0.009  0.00  0.00     0.279 HD
ATOM      4  C4  ZIN AC000       0.706  -0.487   1.196  0.00  0.00     0.238 C 
ATOM      5  C5  ZIN AC000       0.580  -2.013   1.281  0.00  0.00     0.063 C 
ATOM      6  C6  ZIN AC000       1.075  -2.602  -0.024  0.00  0.00    -0.062 C 
ATOM      7  C7  ZIN AC000       1.946  -3.623  -0.038  0.00  0.00     0.023 C 
ATOM      8  C8  ZIN AC000       2.447  -4.210   1.226  0.00  0.00     0.141 A 
ATOM      9  N9  ZIN AC000       1.698  -4.407   2.300  0.00  0.00    -0.240 NA
ATOM     10  C10 ZIN AC000       2.419  -4.984   3.251  0.00  0.00     0.151 A 
ATOM     11  C11 ZIN AC000       3.700  -5.160   2.763  0.00  0.00     0.091 A 
ATOM     12  N14 ZIN AC000       3.707  -4.632   1.472  0.00  0.00    -0.327 N 
ATOM     13  C15 ZIN AC000       4.917  -4.568   0.650  0.00  0.00     0.136 C 
ATOM     14  C16 ZIN AC000       4.766  -3.675  -0.559  0.00  0.00     0.060 C 
ATOM     15  C17 ZIN AC000       3.790  -4.200  -1.565  0.00  0.00    -0.045 A 
ATOM     16  C18 ZIN AC000       4.260  -4.708  -2.767  0.00  0.00     0.008 A 
ATOM     17  C19 ZIN AC000       3.372  -5.202  -3.703  0.00  0.00     0.001 A 
ATOM     18  C20 ZIN AC000       2.011  -5.197  -3.456  0.00  0.00     0.001 A 
ATOM     19  C21 ZIN AC000       1.532  -4.691  -2.262  0.00  0.00     0.013 A 
ATOM     20  C22 ZIN AC000       2.427  -4.195  -1.325  0.00  0.00    -0.016 A 
ATOM     21  C23 ZIN AC000       0.552  -1.999  -1.311  0.00  0.00     0.063 C 
ATOM     22  C24 ZIN AC000       0.683  -0.474  -1.210  0.00  0.00     0.238 C 
ENDROOT
BRANCH  11  23
ATOM     23  C12 ZIN AC000       4.787  -5.756   3.438  0.00  0.00     0.289 C 
ATOM     24  O13 ZIN AC000       4.643  -6.178   4.568  0.00  0.00    -0.300 OA
ENDBRANCH  11  23
TORSDOF 1
