REMARK  0 active torsions:
REMARK  status: ('A' for Active; 'I' for Inactive)
ROOT
ATOM      1  C1  <0> d          -0.019   1.524   0.010  0.00  0.00     0.019 C 
ATOM      2  C2  <0> d           0.002  -0.004   0.002  0.00  0.00    -0.007 C 
ATOM      3  C3  <0> d          -1.422  -0.511   0.192  0.00  0.00     0.013 C 
ATOM      4  C4  <0> d          -1.943   0.027   1.536  0.00  0.00     0.007 C 
ATOM      5  C5  <0> d          -1.038  -0.357   2.697  0.00  0.00     0.003 C 
ATOM      6  C7  <0> d           0.430   0.017   2.465  0.00  0.00     0.001 C 
ATOM      7  C9  <0> d           1.289  -0.558   3.596  0.00  0.00    -0.001 A 
ATOM      8  C11 <0> d           1.667   0.406   4.728  0.00  0.00     0.015 A 
ATOM      9  C12 <0> d           0.677  -0.718   4.984  0.00  0.00     0.020 A 
ATOM     10  C14 <0> d          -0.794  -0.416   5.145  0.00  0.00    -0.063 C 
ATOM     11  C15 <0> d          -1.376  -0.746   6.299  0.00  0.00     0.054 C 
ATOM     12  C16 <0> d          -2.802  -0.509   6.530  0.00  0.00     0.149 C 
ATOM     13  O17 <0> d          -3.363  -0.978   7.502  0.00  0.00    -0.293 OA
ATOM     14  C18 <0> d          -3.561   0.333   5.527  0.00  0.00     0.084 C 
ATOM     15  C19 <0> d          -3.053  -0.007   4.128  0.00  0.00     0.022 C 
ATOM     16  C20 <0> d          -1.550   0.221   4.015  0.00  0.00    -0.016 C 
ATOM     17  C21 <0> d          -1.313   1.730   4.046  0.00  0.00     0.020 C 
ATOM     18  C22 <0> d           0.833  -0.614   1.149  0.00  0.00     0.006 C 
ATOM     19  C24 <0> d           2.280  -0.566   0.716  0.00  0.00    -0.002 A 
ATOM     20  C26 <0> d           2.900   0.544  -0.116  0.00  0.00     0.013 A 
ATOM     21  C27 <0> d           2.220  -0.619  -0.836  0.00  0.00     0.027 A 
ATOM     22  C29 <0> d           0.737  -0.500  -1.234  0.00  0.00     0.083 C 
ATOM     23  C30 <0> d           0.212  -1.869  -1.701  0.00  0.00     0.050 C 
ATOM     24  C31 <0> d           0.499  -1.786  -3.221  0.00  0.00     0.114 C 
ATOM     25  C32 <0> d           0.461  -0.299  -3.510  0.00  0.00     0.259 C 
ATOM     26  O33 <0> d           0.342   0.191  -4.607  0.00  0.00    -0.265 OA
ATOM     27  O34 <0> d           0.574   0.391  -2.364  0.00  0.00    -0.309 OA
ENDROOT
TORSDOF 0
