REMARK  9 active torsions:
REMARK  status: ('A' for Active; 'I' for Inactive)
REMARK    1  A    between atoms: C2_2  and  C3_3 
REMARK       I    between atoms: C3_3  and  N5_5 
REMARK    2  A    between atoms: N5_5  and  C6_6 
REMARK    3  A    between atoms: N5_5  and  C12_12 
REMARK    4  A    between atoms: C12_12  and  C13_13 
REMARK    5  A    between atoms: C13_13  and  O14_14 
REMARK    6  A    between atoms: N18_18  and  C19_19 
REMARK    7  A    between atoms: C19_19  and  C20_20 
REMARK    8  A    between atoms: C20_20  and  N21_21 
REMARK    9  A    between atoms: N24_24  and  C25_25 
ROOT
ATOM      1  C12 ZIN AC000      -0.396  -2.703  -0.036  0.00  0.00     0.065 C 
ATOM      2  C16 ZIN AC000      -0.356  -3.637  -1.248  0.00  0.00     0.064 C 
ATOM      3  C17 ZIN AC000      -0.340  -2.801  -2.530  0.00  0.00     0.275 C 
ATOM      4  N18 ZIN AC000       0.836  -1.923  -2.529  0.00  0.00     0.090 N 
ATOM      5  C29 ZIN AC000       0.796  -0.984  -1.400  0.00  0.00     0.275 C 
ATOM      6  C30 ZIN AC000       0.814  -1.766  -0.084  0.00  0.00     0.064 C 
ENDROOT
BRANCH   1   7
ATOM      7  N5  ZIN AC000      -1.629  -1.912  -0.068  0.00  0.00    -0.306 N 
ATOM      8  C3  ZIN AC000      -2.509  -2.076  -1.075  0.00  0.00     0.224 C 
ATOM      9  O4  ZIN AC000      -2.432  -3.049  -1.796  0.00  0.00    -0.273 OA
BRANCH   8  10
ATOM     10  C2  ZIN AC000      -3.589  -1.051  -1.307  0.00  0.00     0.099 C 
ATOM     11  C1  ZIN AC000      -3.964  -1.031  -2.791  0.00  0.00     0.014 C 
ENDBRANCH   8  10
BRANCH   7  12
ATOM     12  C6  ZIN AC000      -1.893  -0.987   0.948  0.00  0.00     0.038 A 
ATOM     13  C11 ZIN AC000      -3.137  -0.373   1.024  0.00  0.00     0.030 A 
ATOM     14  C10 ZIN AC000      -3.397   0.535   2.032  0.00  0.00     0.002 A 
ATOM     15  C9  ZIN AC000      -2.415   0.843   2.957  0.00  0.00     0.000 A 
ATOM     16  C8  ZIN AC000      -1.174   0.239   2.879  0.00  0.00     0.002 A 
ATOM     17  C7  ZIN AC000      -0.910  -0.675   1.878  0.00  0.00     0.030 A 
ENDBRANCH   7  12
ENDBRANCH   1   7
BRANCH   1  18
ATOM     18  C13 ZIN AC000      -0.352  -3.530   1.250  0.00  0.00     0.198 C 
BRANCH  18  19
ATOM     19  O14 ZIN AC000      -1.484  -4.400   1.296  0.00  0.00    -0.393 OA
ATOM     20  C15 ZIN AC000      -1.539  -5.222   2.464  0.00  0.00     0.201 C 
ENDBRANCH  18  19
ENDBRANCH   1  18
BRANCH   4  21
ATOM     21  C19 ZIN AC000       0.960  -1.206  -3.805  0.00  0.00     0.294 C 
BRANCH  21  22
ATOM     22  C20 ZIN AC000       2.316  -0.499  -3.864  0.00  0.00     0.188 C 
BRANCH  22  23
ATOM     23  N21 ZIN AC000       2.439   0.216  -5.136  0.00  0.00    -0.197 N 
ATOM     24  C27 ZIN AC000       2.064   1.491  -5.376  0.00  0.00     0.363 A 
ATOM     25  N24 ZIN AC000       2.361   1.739  -6.670  0.00  0.00    -0.199 N 
ATOM     26  O28 ZIN AC000       1.565   2.267  -4.580  0.00  0.00    -0.243 OA
ATOM     27  N23 ZIN AC000       2.917   0.570  -7.205  0.00  0.00    -0.043 NA
ATOM     28  N22 ZIN AC000       2.961  -0.300  -6.329  0.00  0.00    -0.043 NA
BRANCH  25  29
ATOM     29  C25 ZIN AC000       2.135   2.997  -7.385  0.00  0.00     0.153 C 
ATOM     30  C26 ZIN AC000       3.373   3.888  -7.252  0.00  0.00     0.029 C 
ENDBRANCH  25  29
ENDBRANCH  22  23
ENDBRANCH  21  22
ENDBRANCH   4  21
TORSDOF 9
