REMARK  1 active torsions:
REMARK  status: ('A' for Active; 'I' for Inactive)
REMARK    1  A    between atoms: C4_3  and  C6_4 
ROOT
ATOM      1  C1  ZIN AC000      -0.019   1.526   0.010  0.00  0.00     0.043 C 
ATOM      2  C2  ZIN AC000       0.002  -0.004   0.002  0.00  0.00     0.217 C 
ATOM      3  C4  ZIN AC000      -1.434  -0.534   0.014  0.00  0.00     0.184 C 
ATOM      4  O12 ZIN AC000      -1.408  -1.964   0.062  0.00  0.00    -0.377 OA
ATOM      5  C13 ZIN AC000      -0.707  -2.487   1.193  0.00  0.00     0.196 C 
ATOM      6  C14 ZIN AC000       0.731  -1.960   1.184  0.00  0.00     0.261 C 
ATOM      7  N15 ZIN AC000       0.712  -0.491   1.193  0.00  0.00    -0.066 N 
ATOM      8  H16 ZIN AC000       0.239  -0.166   2.023  0.00  0.00     0.280 HD
ATOM      9  C17 ZIN AC000       2.090   0.016   1.184  0.00  0.00     0.270 C 
ENDROOT
BRANCH   3  10
ATOM     10  C6  ZIN AC000      -2.147  -0.085  -1.236  0.00  0.00    -0.027 A 
ATOM     11  C11 ZIN AC000      -2.920   1.061  -1.216  0.00  0.00     0.010 A 
ATOM     12  C10 ZIN AC000      -3.571   1.475  -2.363  0.00  0.00     0.001 A 
ATOM     13  C9  ZIN AC000      -3.455   0.740  -3.527  0.00  0.00     0.000 A 
ATOM     14  C8  ZIN AC000      -2.685  -0.408  -3.546  0.00  0.00     0.001 A 
ATOM     15  C7  ZIN AC000      -2.031  -0.821  -2.400  0.00  0.00     0.010 A 
ENDBRANCH   3  10
TORSDOF 1
