REMARK  4 active torsions:
REMARK  status: ('A' for Active; 'I' for Inactive)
REMARK    1  A    between atoms: C5_5  and  N6_6 
REMARK       I    between atoms: N6_6  and  C7_7 
REMARK    2  A    between atoms: C7_7  and  C9_9 
REMARK    3  A    between atoms: C14_14  and  N15_15 
REMARK       I    between atoms: N15_15  and  C16_16 
REMARK    4  A    between atoms: C16_16  and  C18_18 
ROOT
ATOM      1  N1  ZIN AC000      -0.976  -1.112  -0.149  0.00  0.00    -0.191 NA
ATOM      2  C2  ZIN AC000      -0.863   0.018  -0.123  0.00  0.00     0.099 C 
ATOM      3  C3  ZIN AC000      -0.721   1.442  -0.089  0.00  0.00     0.049 A 
ATOM      4  C4  ZIN AC000      -1.850   2.260  -0.163  0.00  0.00     0.054 A 
ATOM      5  C5  ZIN AC000      -1.709   3.639  -0.130  0.00  0.00     0.060 A 
ATOM      6  C12 ZIN AC000      -0.445   4.208  -0.024  0.00  0.00     0.087 A 
ATOM      7 Cl13 ZIN AC000      -0.273   5.934   0.018  0.00  0.00    -0.079 Cl
ATOM      8  C14 ZIN AC000       0.681   3.396   0.050  0.00  0.00     0.060 A 
ATOM      9  C21 ZIN AC000       0.546   2.016   0.023  0.00  0.00     0.054 A 
ENDROOT
BRANCH   8  10
ATOM     10  N15 ZIN AC000       1.950   3.971   0.158  0.00  0.00    -0.316 N 
ATOM     11  C16 ZIN AC000       2.959   3.278   0.722  0.00  0.00     0.322 C 
ATOM     12  O17 ZIN AC000       2.744   2.196   1.226  0.00  0.00    -0.261 OA
ATOM     13  H24 ZIN AC000       2.105   4.870  -0.174  0.00  0.00     0.169 HD
BRANCH  11  14
ATOM     14  C18 ZIN AC000       4.344   3.843   0.726  0.00  0.00     0.270 C 
ATOM     15  O19 ZIN AC000       5.257   3.215   1.237  0.00  0.00    -0.640 OA
ATOM     16  O20 ZIN AC000       4.561   4.931   0.219  0.00  0.00    -0.640 OA
ENDBRANCH  11  14
ENDBRANCH   8  10
BRANCH   5  17
ATOM     17  N6  ZIN AC000      -2.839   4.458  -0.204  0.00  0.00    -0.316 N 
ATOM     18  C7  ZIN AC000      -4.039   3.987   0.188  0.00  0.00     0.322 C 
ATOM     19  O8  ZIN AC000      -4.123   2.890   0.699  0.00  0.00    -0.261 OA
ATOM     20  H23 ZIN AC000      -2.759   5.365  -0.538  0.00  0.00     0.169 HD
BRANCH  18  21
ATOM     21  C9  ZIN AC000      -5.268   4.818  -0.005  0.00  0.00     0.270 C 
ATOM     22  O10 ZIN AC000      -6.355   4.392   0.350  0.00  0.00    -0.640 OA
ATOM     23  O11 ZIN AC000      -5.184   5.922  -0.519  0.00  0.00    -0.640 OA
ENDBRANCH  18  21
ENDBRANCH   5  17
TORSDOF 4
