REMARK  5 active torsions:
REMARK  status: ('A' for Active; 'I' for Inactive)
REMARK    1  A    between atoms: C23_19  and  O25_20 
REMARK    2  A    between atoms: C29_24  and  O30_25 
REMARK    3  A    between atoms: C29_24  and  C31_26 
REMARK    4  A    between atoms: C31_26  and  C33_28 
REMARK    5  A    between atoms: C33_28  and  O34_29 
ROOT
ATOM      1  C1  ZIN AC000       1.092   1.178   1.141  0.00  0.00     0.013 C 
ATOM      2  C2  ZIN AC000       1.038  -0.343   0.983  0.00  0.00     0.025 C 
ATOM      3  C4  ZIN AC000       1.362  -0.738  -0.484  0.00  0.00     0.013 C 
ATOM      4  C5  ZIN AC000       2.167  -2.032  -0.321  0.00  0.00     0.005 C 
ATOM      5  C7  ZIN AC000       3.062  -2.404  -1.489  0.00  0.00     0.037 C 
ATOM      6  C9  ZIN AC000       2.211  -2.665  -2.733  0.00  0.00     0.050 C 
ATOM      7  C10 ZIN AC000       3.120  -3.002  -3.919  0.00  0.00     0.201 C 
ATOM      8  F12 ZIN AC000       2.341  -3.354  -5.026  0.00  0.00    -0.245 F 
ATOM      9  C13 ZIN AC000       4.003  -4.169  -3.520  0.00  0.00    -0.027 A 
ATOM     10  C14 ZIN AC000       4.064  -5.229  -4.314  0.00  0.00     0.061 A 
ATOM     11  C15 ZIN AC000       4.893  -6.389  -3.951  0.00  0.00     0.172 A 
ATOM     12  O16 ZIN AC000       4.983  -7.348  -4.695  0.00  0.00    -0.289 OA
ATOM     13  C17 ZIN AC000       5.613  -6.363  -2.666  0.00  0.00     0.052 A 
ATOM     14  C18 ZIN AC000       5.543  -5.291  -1.893  0.00  0.00    -0.006 A 
ATOM     15  C19 ZIN AC000       4.772  -4.063  -2.236  0.00  0.00     0.039 A 
ATOM     16  C20 ZIN AC000       5.768  -2.911  -2.382  0.00  0.00     0.028 C 
ATOM     17  C21 ZIN AC000       3.832  -3.674  -1.092  0.00  0.00     0.147 C 
ATOM     18  F22 ZIN AC000       2.910  -4.705  -0.884  0.00  0.00    -0.238 F 
ATOM     19  C23 ZIN AC000       4.643  -3.487   0.186  0.00  0.00     0.160 C 
ATOM     20  C26 ZIN AC000       3.771  -2.970   1.341  0.00  0.00     0.048 C 
ATOM     21  C27 ZIN AC000       3.079  -1.684   0.886  0.00  0.00     0.001 C 
ATOM     22  C28 ZIN AC000       4.123  -0.683   0.387  0.00  0.00     0.019 C 
ATOM     23  C29 ZIN AC000       2.123  -1.008   1.865  0.00  0.00     0.131 C 
ENDROOT
BRANCH  23  24
ATOM     24  O30 ZIN AC000       1.563  -1.974   2.757  0.00  0.00    -0.381 OA
ATOM     25  H54 ZIN AC000       0.947  -1.603   3.403  0.00  0.00     0.211 HD
ENDBRANCH  23  24
BRANCH  23  26
ATOM     26  C31 ZIN AC000       2.843   0.064   2.642  0.00  0.00     0.185 C 
ATOM     27  O32 ZIN AC000       3.433   0.941   2.056  0.00  0.00    -0.292 OA
BRANCH  26  28
ATOM     28  C33 ZIN AC000       2.827   0.044   4.148  0.00  0.00     0.245 C 
BRANCH  28  29
ATOM     29  O34 ZIN AC000       3.574   1.155   4.648  0.00  0.00    -0.393 OA
ATOM     30  H57 ZIN AC000       3.606   1.205   5.613  0.00  0.00     0.209 HD
ENDBRANCH  28  29
ENDBRANCH  26  28
ENDBRANCH  23  26
BRANCH  19  31
ATOM     31  O25 ZIN AC000       5.692  -2.548  -0.060  0.00  0.00    -0.392 OA
ATOM     32  H48 ZIN AC000       6.254  -2.375   0.708  0.00  0.00     0.210 HD
ENDBRANCH  19  31
TORSDOF 5
