REMARK  3 active torsions:
REMARK  status: ('A' for Active; 'I' for Inactive)
REMARK    1  A    between atoms: C3_3  and  C4_4 
REMARK       I    between atoms: C4_4  and  N6_6 
REMARK    2  A    between atoms: N6_6  and  C7_7 
REMARK    3  A    between atoms: N6_6  and  C9_9 
ROOT
ATOM      1  C4  <0> d          -1.121  -2.155   0.001  0.00  0.00     0.247 C 
ATOM      2  O5  <0> d          -0.059  -2.749  -0.012  0.00  0.00    -0.268 OA
ATOM      3  N6  <0> d          -2.279  -2.845   0.009  0.00  0.00    -0.314 N 
ENDROOT
BRANCH   3   4
ATOM      4  C7  <0> d          -3.557  -2.130   0.025  0.00  0.00     0.128 C 
ATOM      5  C8  <0> d          -4.016  -1.873  -1.412  0.00  0.00     0.027 C 
ENDBRANCH   3   4
BRANCH   3   6
ATOM      6  C9  <0> d          -2.260  -4.243   0.001  0.00  0.00     0.043 A 
ATOM      7  C14 <0> d          -2.262  -4.933  -1.205  0.00  0.00    -0.035 A 
ATOM      8  C13 <0> d          -2.237  -6.313  -1.209  0.00  0.00     0.009 A 
ATOM      9  C15 <0> d          -2.278  -4.175  -2.507  0.00  0.00     0.050 C 
ATOM     10  C12 <0> d          -2.222  -7.010  -0.014  0.00  0.00     0.001 A 
ATOM     11  C11 <0> d          -2.226  -6.327   1.188  0.00  0.00     0.002 A 
ATOM     12  C10 <0> d          -2.244  -4.945   1.199  0.00  0.00     0.030 A 
ENDBRANCH   3   6
BRANCH   1  13
ATOM     13  C3  <0> d          -1.141  -0.685   0.009  0.00  0.00     0.070 C 
ATOM     14  C2  <0> d           0.002  -0.004   0.002  0.00  0.00    -0.026 C 
ATOM     15  C1  <0> d          -0.018   1.503   0.010  0.00  0.00     0.036 C 
ENDBRANCH   1  13
TORSDOF 3
