REMARK  1 active torsions:
REMARK  status: ('A' for Active; 'I' for Inactive)
REMARK    1  A    between atoms: N6_6  and  C7_7 
ROOT
ATOM      1  C1  ZIN AC000      -0.018   1.503   0.010  0.00  0.00     0.072 C 
ATOM      2  C2  ZIN AC000       0.002  -0.004   0.002  0.00  0.00     0.057 A 
ATOM      3  C3  ZIN AC000      -1.081  -0.807   0.003  0.00  0.00     0.104 A 
ATOM      4  C4  ZIN AC000      -0.633  -2.149  -0.007  0.00  0.00     0.270 A 
ATOM      5  O5  ZIN AC000      -1.338  -3.142  -0.009  0.00  0.00    -0.266 OA
ATOM      6  N6  ZIN AC000       0.715  -2.129  -0.013  0.00  0.00    -0.198 N 
ATOM      7  N13 ZIN AC000       1.121  -0.788  -0.013  0.00  0.00    -0.169 NA
ENDROOT
BRANCH   6   8
ATOM      8  C7  ZIN AC000       1.557  -3.245  -0.023  0.00  0.00     0.062 A 
ATOM      9  C12 ZIN AC000       2.936  -3.078  -0.028  0.00  0.00     0.032 A 
ATOM     10  C11 ZIN AC000       3.764  -4.183  -0.032  0.00  0.00     0.002 A 
ATOM     11  C10 ZIN AC000       3.223  -5.455  -0.042  0.00  0.00     0.000 A 
ATOM     12  C9  ZIN AC000       1.850  -5.625  -0.043  0.00  0.00     0.002 A 
ATOM     13  C8  ZIN AC000       1.016  -4.525  -0.033  0.00  0.00     0.032 A 
ENDBRANCH   6   8
TORSDOF 1
