REMARK  7 active torsions:
REMARK  status: ('A' for Active; 'I' for Inactive)
REMARK    1  A    between atoms: O2_2  and  C3_3 
REMARK    2  A    between atoms: C5_5  and  C6_6 
REMARK    3  A    between atoms: C6_6  and  C7_7 
REMARK    4  A    between atoms: C11_11  and  N12_12 
REMARK    5  A    between atoms: C14_14  and  N15_15 
REMARK    6  A    between atoms: C17_17  and  O18_18 
REMARK    7  A    between atoms: C20_20  and  O21_21 
ROOT
ATOM      1  C7  ZIN AC000       3.843   0.672  -3.892  0.00  0.00     0.008 A 
ATOM      2  C8  ZIN AC000       4.198   1.840  -3.247  0.00  0.00     0.117 A 
ATOM      3  N9  ZIN AC000       5.474   2.062  -2.964  0.00  0.00    -0.200 N 
ATOM      4  H10 ZIN AC000       5.727   2.881  -2.511  0.00  0.00     0.183 HD
ATOM      5  C11 ZIN AC000       6.407   1.181  -3.292  0.00  0.00     0.699 A 
ATOM      6  N13 ZIN AC000       6.108   0.049  -3.911  0.00  0.00    -0.047 NA
ATOM      7  C14 ZIN AC000       4.848  -0.241  -4.220  0.00  0.00     0.148 A 
ENDROOT
BRANCH   1   8
ATOM      8  C6  ZIN AC000       2.402   0.386  -4.230  0.00  0.00     0.082 C 
BRANCH   8   9
ATOM      9  C5  ZIN AC000       1.787  -0.452  -3.139  0.00  0.00    -0.048 A 
ATOM     10  C4  ZIN AC000       1.173   0.160  -2.063  0.00  0.00     0.047 A 
ATOM     11  C3  ZIN AC000       0.606  -0.608  -1.056  0.00  0.00     0.104 A 
ATOM     12  C20 ZIN AC000       0.661  -1.994  -1.128  0.00  0.00     0.135 A 
ATOM     13  C17 ZIN AC000       1.275  -2.606  -2.215  0.00  0.00     0.104 A 
ATOM     14  C16 ZIN AC000       1.840  -1.831  -3.217  0.00  0.00     0.047 A 
BRANCH  11  15
ATOM     15  O2  ZIN AC000       0.002  -0.004   0.002  0.00  0.00    -0.353 OA
ATOM     16  C1  ZIN AC000      -0.017   1.425   0.010  0.00  0.00     0.210 C 
ENDBRANCH  11  15
BRANCH  12  17
ATOM     17  O21 ZIN AC000       0.106  -2.751  -0.143  0.00  0.00    -0.351 OA
ATOM     18  C22 ZIN AC000       0.950  -3.111   0.953  0.00  0.00     0.210 C 
ENDBRANCH  12  17
BRANCH  13  19
ATOM     19  O18 ZIN AC000       1.327  -3.963  -2.292  0.00  0.00    -0.353 OA
ATOM     20  C19 ZIN AC000       1.979  -4.523  -3.434  0.00  0.00     0.210 C 
ENDBRANCH  13  19
ENDBRANCH   8   9
ENDBRANCH   1   8
BRANCH   7  21
ATOM     21  N15 ZIN AC000       4.538  -1.426  -4.867  0.00  0.00    -0.383 N 
ATOM     22  H32 ZIN AC000       5.243  -2.051  -5.098  0.00  0.00     0.157 HD
ATOM     23  H33 ZIN AC000       3.616  -1.630  -5.089  0.00  0.00     0.157 HD
ENDBRANCH   7  21
BRANCH   5  24
ATOM     24  N12 ZIN AC000       7.728   1.450  -2.978  0.00  0.00    -0.233 N 
ATOM     25  H30 ZIN AC000       7.961   2.275  -2.524  0.00  0.00     0.174 HD
ATOM     26  H31 ZIN AC000       8.421   0.813  -3.212  0.00  0.00     0.174 HD
ENDBRANCH   5  24
TORSDOF 7
