REMARK  2 active torsions:
REMARK  status: ('A' for Active; 'I' for Inactive)
REMARK    1  A    between atoms: C2_2  and  N3_3 
REMARK    2  A    between atoms: C7_7  and  C9_8 
ROOT
ATOM      1  N3  ZIN AC000       0.688  -0.476  -1.203  0.00  0.00    -0.268 N 
ATOM      2  C4  ZIN AC000       0.077  -0.724  -2.368  0.00  0.00     0.326 A 
ATOM      3  O5  ZIN AC000      -1.117  -0.582  -2.548  0.00  0.00    -0.247 OA
ATOM      4  N6  ZIN AC000       0.931  -1.146  -3.317  0.00  0.00    -0.325 N 
ATOM      5  C7  ZIN AC000       2.267  -1.180  -2.696  0.00  0.00     0.212 A 
ATOM      6  C15 ZIN AC000       2.013  -0.711  -1.278  0.00  0.00     0.255 A 
ATOM      7  O16 ZIN AC000       2.831  -0.578  -0.393  0.00  0.00    -0.270 OA
ATOM      8  H22 ZIN AC000       0.711  -1.383  -4.231  0.00  0.00     0.165 HD
ENDROOT
BRANCH   5   9
ATOM      9  C9  ZIN AC000       2.821  -2.582  -2.708  0.00  0.00    -0.026 A 
ATOM     10  C14 ZIN AC000       4.165  -2.791  -2.954  0.00  0.00     0.010 A 
ATOM     11  C13 ZIN AC000       4.674  -4.077  -2.960  0.00  0.00     0.001 A 
ATOM     12  C12 ZIN AC000       3.838  -5.152  -2.728  0.00  0.00     0.000 A 
ATOM     13  C11 ZIN AC000       2.493  -4.943  -2.487  0.00  0.00     0.001 A 
ATOM     14  C10 ZIN AC000       1.985  -3.658  -2.477  0.00  0.00     0.010 A 
ENDBRANCH   5   9
BRANCH   1  15
ATOM     15  C2  ZIN AC000       0.002  -0.004   0.002  0.00  0.00     0.132 C 
ATOM     16  C1  ZIN AC000      -0.019   1.526   0.010  0.00  0.00     0.027 C 
ENDBRANCH   1  15
TORSDOF 2
