REMARK  10 active torsions:
REMARK  status: ('A' for Active; 'I' for Inactive)
REMARK    1  A    between atoms: C2_2  and  O3_3 
REMARK    2  A    between atoms: O3_3  and  C4_4 
REMARK    3  A    between atoms: C6_6  and  C7_7 
REMARK    4  A    between atoms: C7_7  and  C8_8 
REMARK       I    between atoms: C8_8  and  N10_10 
REMARK    5  A    between atoms: N10_10  and  C11_11 
REMARK    6  A    between atoms: C11_11  and  C13_12 
REMARK    7  A    between atoms: C11_11  and  C17_16 
REMARK    8  A    between atoms: C13_12  and  C14_13 
REMARK    9  A    between atoms: C22_21  and  N23_22 
REMARK   10  A    between atoms: C31_30  and  C32_31 
ROOT
ATOM      1  C8  <0> d          -0.532  -5.571  -2.755  0.00  0.00     0.222 C 
ATOM      2  O9  <0> d          -0.282  -4.674  -3.532  0.00  0.00    -0.273 OA
ATOM      3  N10 <0> d           0.216  -6.692  -2.758  0.00  0.00    -0.352 N 
ATOM      4  H43 <0> d           0.064  -7.378  -2.088  0.00  0.00     0.163 HD
ENDROOT
BRANCH   3   5
ATOM      5  C11 <0> d           1.257  -6.876  -3.772  0.00  0.00     0.120 C 
BRANCH   5   6
ATOM      6  C13 <0> d           2.306  -7.862  -3.253  0.00  0.00     0.034 C 
BRANCH   6   7
ATOM      7  C14 <0> d           3.020  -7.256  -2.043  0.00  0.00    -0.021 C 
ATOM      8  C15 <0> d           2.034  -7.125  -0.881  0.00  0.00     0.009 C 
ATOM      9  C16 <0> d           4.179  -8.164  -1.628  0.00  0.00     0.009 C 
ENDBRANCH   6   7
ENDBRANCH   5   6
BRANCH   5  10
ATOM     10  C17 <0> d           0.638  -7.419  -5.034  0.00  0.00    -0.009 A 
ATOM     11  C22 <0> d           1.230  -7.163  -6.265  0.00  0.00     0.038 A 
ATOM     12  C21 <0> d           0.660  -7.670  -7.425  0.00  0.00     0.030 A 
ATOM     13  C20 <0> d          -0.499  -8.418  -7.354  0.00  0.00     0.002 A 
ATOM     14  C19 <0> d          -1.089  -8.666  -6.128  0.00  0.00     0.001 A 
ATOM     15  C18 <0> d          -0.521  -8.167  -4.970  0.00  0.00     0.011 A 
BRANCH  11  16
ATOM     16  N23 <0> d           2.402  -6.407  -6.334  0.00  0.00    -0.380 N 
ATOM     17  C28 <0> d           2.343  -4.947  -6.494  0.00  0.00     0.123 C 
ATOM     18  C27 <0> d           3.193  -4.543  -7.696  0.00  0.00     0.020 C 
ATOM     19  C26 <0> d           4.609  -5.101  -7.528  0.00  0.00     0.003 C 
ATOM     20  C25 <0> d           4.553  -6.629  -7.465  0.00  0.00     0.020 C 
ATOM     21  C24 <0> d           3.718  -7.056  -6.254  0.00  0.00     0.123 C 
ENDBRANCH  11  16
ENDBRANCH   5  10
ENDBRANCH   3   5
BRANCH   1  22
ATOM     22  C7  <0> d          -1.677  -5.432  -1.785  0.00  0.00     0.141 C 
BRANCH  22  23
ATOM     23  C6  <0> d          -2.345  -4.096  -1.986  0.00  0.00    -0.047 A 
ATOM     24  C5  <0> d          -3.390  -3.979  -2.882  0.00  0.00     0.045 A 
ATOM     25  C4  <0> d          -4.009  -2.753  -3.072  0.00  0.00     0.086 A 
ATOM     26  C31 <0> d          -3.565  -1.631  -2.354  0.00  0.00     0.074 A 
ATOM     27  C30 <0> d          -2.510  -1.766  -1.446  0.00  0.00     0.022 A 
ATOM     28  C29 <0> d          -1.907  -2.993  -1.271  0.00  0.00     0.009 A 
BRANCH  25  29
ATOM     29  O3  <0> d          -5.034  -2.636  -3.951  0.00  0.00    -0.350 OA
BRANCH  29  30
ATOM     30  C2  <0> d          -5.431  -3.821  -4.646  0.00  0.00     0.171 C 
ATOM     31  C1  <0> d          -6.593  -3.495  -5.586  0.00  0.00     0.034 C 
ENDBRANCH  29  30
ENDBRANCH  25  29
BRANCH  26  32
ATOM     32  C32 <0> d          -4.214  -0.325  -2.546  0.00  0.00     0.212 C 
ATOM     33  O33 <0> d          -3.830   0.648  -1.911  0.00  0.00    -0.644 OA
ATOM     34  O34 <0> d          -5.137  -0.211  -3.341  0.00  0.00    -0.644 OA
ENDBRANCH  26  32
ENDBRANCH  22  23
ENDBRANCH   1  22
TORSDOF 10
