REMARK  12 active torsions:
REMARK  status: ('A' for Active; 'I' for Inactive)
REMARK    1  A    between atoms: C2_2  and  C3_3 
REMARK    2  A    between atoms: C3_3  and  C4_4 
REMARK    3  A    between atoms: C4_4  and  C5_5 
REMARK    4  A    between atoms: C5_5  and  C8_8 
REMARK    5  A    between atoms: C8_8  and  O9_9 
REMARK    6  A    between atoms: C19_17  and  C21_18 
REMARK    7  A    between atoms: C21_18  and  C22_19 
REMARK    8  A    between atoms: C22_19  and  C23_20 
REMARK    9  A    between atoms: C23_20  and  C24_21 
REMARK   10  A    between atoms: C24_21  and  C25_22 
REMARK   11  A    between atoms: C25_22  and  C26_23 
REMARK   12  A    between atoms: C26_23  and  C27_24 
ROOT
ATOM      1  C8  ZIN AC000      -2.827  -4.123   0.007  0.00  0.00     0.229 C 
ATOM      2  C10 ZIN AC000      -4.194  -4.641   0.447  0.00  0.00     0.075 C 
ATOM      3  C11 ZIN AC000      -4.297  -6.167   0.269  0.00  0.00     0.013 C 
ATOM      4  C12 ZIN AC000      -3.941  -6.462  -1.177  0.00  0.00     0.026 C 
ATOM      5  C14 ZIN AC000      -2.472  -5.991  -1.376  0.00  0.00     0.137 C 
ATOM      6  C16 ZIN AC000      -2.132  -6.635  -2.722  0.00  0.00     0.111 C 
ATOM      7  C17 ZIN AC000      -2.759  -8.026  -2.610  0.00  0.00     0.134 C 
ATOM      8  O18 ZIN AC000      -2.428  -9.014  -3.221  0.00  0.00    -0.297 OA
ATOM      9  C19 ZIN AC000      -3.899  -7.930  -1.585  0.00  0.00     0.062 C 
ATOM     10  O30 ZIN AC000      -2.481  -4.580  -1.313  0.00  0.00    -0.344 OA
ENDROOT
BRANCH   1  11
ATOM     11  C5  ZIN AC000      -2.848  -2.593   0.015  0.00  0.00     0.298 C 
ATOM     12  F6  ZIN AC000      -3.503  -2.142   1.166  0.00  0.00    -0.200 F 
ATOM     13  F7  ZIN AC000      -3.525  -2.130  -1.118  0.00  0.00    -0.200 F 
BRANCH  11  14
ATOM     14  C4  ZIN AC000      -1.413  -2.063   0.004  0.00  0.00     0.085 C 
BRANCH  14  15
ATOM     15  C3  ZIN AC000      -1.433  -0.534   0.013  0.00  0.00     0.006 C 
BRANCH  15  16
ATOM     16  C2  ZIN AC000       0.002  -0.004   0.002  0.00  0.00    -0.004 C 
ATOM     17  C1  ZIN AC000      -0.019   1.526   0.010  0.00  0.00     0.005 C 
ENDBRANCH  15  16
ENDBRANCH  14  15
ENDBRANCH  11  14
ENDBRANCH   1  11
BRANCH   1  18
ATOM     18  O9  ZIN AC000      -1.838  -4.580   0.932  0.00  0.00    -0.361 OA
ATOM     19  H40 ZIN AC000      -0.942  -4.277   0.731  0.00  0.00     0.213 HD
ENDBRANCH   1  18
BRANCH   9  20
ATOM     20  C21 ZIN AC000      -5.220  -8.371  -2.220  0.00  0.00     0.013 C 
BRANCH  20  21
ATOM     21  C22 ZIN AC000      -5.153  -9.863  -2.552  0.00  0.00     0.001 C 
BRANCH  21  22
ATOM     22  C23 ZIN AC000      -6.474 -10.303  -3.187  0.00  0.00     0.000 C 
BRANCH  22  23
ATOM     23  C24 ZIN AC000      -6.407 -11.795  -3.519  0.00  0.00     0.001 C 
BRANCH  23  24
ATOM     24  C25 ZIN AC000      -7.728 -12.236  -4.154  0.00  0.00     0.010 C 
BRANCH  24  25
ATOM     25  C26 ZIN AC000      -7.661 -13.728  -4.486  0.00  0.00     0.113 C 
BRANCH  25  26
ATOM     26  C27 ZIN AC000      -8.962 -14.162  -5.111  0.00  0.00     0.172 C 
ATOM     27  O28 ZIN AC000      -9.859 -13.352  -5.276  0.00  0.00    -0.648 OA
ATOM     28  O29 ZIN AC000      -9.117 -15.322  -5.452  0.00  0.00    -0.648 OA
ENDBRANCH  25  26
ENDBRANCH  24  25
ENDBRANCH  23  24
ENDBRANCH  22  23
ENDBRANCH  21  22
ENDBRANCH  20  21
ENDBRANCH   9  20
TORSDOF 12
