REMARK  18 active torsions:
REMARK  status: ('A' for Active; 'I' for Inactive)
REMARK    1  A    between atoms: C2_2  and  C3_3 
REMARK    2  A    between atoms: C3_3  and  C4_4 
REMARK    3  A    between atoms: C4_4  and  C5_5 
REMARK    4  A    between atoms: C5_5  and  C6_6 
REMARK    5  A    between atoms: C6_6  and  C7_7 
REMARK    6  A    between atoms: C7_7  and  C8_8 
REMARK    7  A    between atoms: C8_8  and  C9_9 
REMARK    8  A    between atoms: C9_9  and  C10_10 
REMARK    9  A    between atoms: C10_10  and  N11_11 
REMARK   10  A    between atoms: N11_11  and  C14_14 
REMARK   11  A    between atoms: C14_14  and  C15_15 
REMARK   12  A    between atoms: C15_15  and  C16_16 
REMARK   13  A    between atoms: C16_16  and  C17_17 
REMARK   14  A    between atoms: C17_17  and  C18_18 
REMARK   15  A    between atoms: C18_18  and  C19_19 
REMARK   16  A    between atoms: C19_19  and  C20_20 
REMARK   17  A    between atoms: C20_20  and  C21_21 
REMARK   18  A    between atoms: C21_21  and  C22_22 
ROOT
ATOM      1  N11 ZIN AC000      -7.035  -8.750   0.022  0.00  0.00    -0.075 N 
ATOM      2  C12 ZIN AC000      -7.722  -8.277   1.231  0.00  0.00     0.272 C 
ATOM      3  C13 ZIN AC000      -7.745  -8.264  -1.168  0.00  0.00     0.272 C 
ENDROOT
BRANCH   1   4
ATOM      4  C10 ZIN AC000      -5.657  -8.242   0.012  0.00  0.00     0.236 C 
BRANCH   4   5
ATOM      5  C9  ZIN AC000      -5.677  -6.712   0.020  0.00  0.00     0.028 C 
BRANCH   5   6
ATOM      6  C8  ZIN AC000      -4.242  -6.182   0.009  0.00  0.00     0.002 C 
BRANCH   6   7
ATOM      7  C7  ZIN AC000      -4.263  -4.652   0.018  0.00  0.00     0.000 C 
BRANCH   7   8
ATOM      8  C6  ZIN AC000      -2.827  -4.123   0.007  0.00  0.00     0.000 C 
BRANCH   8   9
ATOM      9  C5  ZIN AC000      -2.848  -2.593   0.015  0.00  0.00     0.000 C 
BRANCH   9  10
ATOM     10  C4  ZIN AC000      -1.413  -2.063   0.004  0.00  0.00     0.000 C 
BRANCH  10  11
ATOM     11  C3  ZIN AC000      -1.433  -0.534   0.013  0.00  0.00    -0.000 C 
BRANCH  11  12
ATOM     12  C2  ZIN AC000       0.002  -0.004   0.002  0.00  0.00    -0.005 C 
ATOM     13  C1  ZIN AC000      -0.019   1.526   0.010  0.00  0.00     0.005 C 
ENDBRANCH  11  12
ENDBRANCH  10  11
ENDBRANCH   9  10
ENDBRANCH   8   9
ENDBRANCH   7   8
ENDBRANCH   6   7
ENDBRANCH   5   6
ENDBRANCH   4   5
ENDBRANCH   1   4
BRANCH   1  14
ATOM     14  C14 ZIN AC000      -7.015 -10.219   0.014  0.00  0.00     0.236 C 
BRANCH  14  15
ATOM     15  C15 ZIN AC000      -8.450 -10.749   0.025  0.00  0.00     0.028 C 
BRANCH  15  16
ATOM     16  C16 ZIN AC000      -8.429 -12.278   0.017  0.00  0.00     0.002 C 
BRANCH  16  17
ATOM     17  C17 ZIN AC000      -9.865 -12.808   0.028  0.00  0.00     0.000 C 
BRANCH  17  18
ATOM     18  C18 ZIN AC000      -9.844 -14.338   0.019  0.00  0.00     0.000 C 
BRANCH  18  19
ATOM     19  C19 ZIN AC000     -11.279 -14.867   0.030  0.00  0.00     0.000 C 
BRANCH  19  20
ATOM     20  C20 ZIN AC000     -11.259 -16.397   0.021  0.00  0.00     0.000 C 
BRANCH  20  21
ATOM     21  C21 ZIN AC000     -12.694 -16.927   0.032  0.00  0.00    -0.000 C 
BRANCH  21  22
ATOM     22  C22 ZIN AC000     -12.673 -18.457   0.024  0.00  0.00    -0.005 C 
ATOM     23  C23 ZIN AC000     -14.109 -18.986   0.035  0.00  0.00     0.005 C 
ENDBRANCH  21  22
ENDBRANCH  20  21
ENDBRANCH  19  20
ENDBRANCH  18  19
ENDBRANCH  17  18
ENDBRANCH  16  17
ENDBRANCH  15  16
ENDBRANCH  14  15
ENDBRANCH   1  14
TORSDOF 18
