REMARK  4 active torsions:
REMARK  status: ('A' for Active; 'I' for Inactive)
REMARK       I    between atoms: C2_2  and  N4_4 
REMARK    1  A    between atoms: N4_4  and  C5_5 
REMARK    2  A    between atoms: C5_5  and  C7_6 
REMARK    3  A    between atoms: C5_5  and  C9_8 
REMARK    4  A    between atoms: C7_6  and  S8_7 
ROOT
ATOM      1  C5  <0> d           0.020  -2.136  -1.177  0.00  0.00     0.194 C 
ENDROOT
BRANCH   1   2
ATOM      2  N4  <0> d           0.000  -0.672  -1.169  0.00  0.00    -0.346 N 
ATOM      3  C2  <0> d           0.002  -0.004   0.002  0.00  0.00     0.214 C 
ATOM      4  C1  <0> d          -0.018   1.503   0.010  0.00  0.00     0.117 C 
ATOM      5  O3  <0> d           0.020  -0.616   1.049  0.00  0.00    -0.274 OA
ATOM      6  H15 <0> d          -0.015  -0.182  -2.006  0.00  0.00     0.163 HD
ENDBRANCH   1   2
BRANCH   1   7
ATOM      7  C7  <0> d          -0.595  -2.648  -2.481  0.00  0.00     0.106 C 
BRANCH   7   8
ATOM      8  S8  <0> d          -2.308  -2.066  -2.611  0.00  0.00    -0.180 SA
ATOM      9  H18 <0> d          -2.715  -2.582  -3.784  0.00  0.00     0.101 HD
ENDBRANCH   7   8
ENDBRANCH   1   7
BRANCH   1  10
ATOM     10  C9  <0> d           1.443  -2.620  -1.069  0.00  0.00     0.197 C 
ATOM     11  O10 <0> d           2.356  -1.816  -0.993  0.00  0.00    -0.646 OA
ATOM     12  O11 <0> d           1.681  -3.816  -1.058  0.00  0.00    -0.646 OA
ENDBRANCH   1  10
TORSDOF 4
