REMARK  3 active torsions:
REMARK  status: ('A' for Active; 'I' for Inactive)
REMARK    1  A    between atoms: N2_2  and  C5_5 
REMARK    2  A    between atoms: C5_5  and  C6_6 
REMARK    3  A    between atoms: C6_6  and  C7_7 
ROOT
ATOM      1  C7  ZIN AC000      -3.492  -0.632  -1.275  0.00  0.00    -0.012 C 
ATOM      2  C8  ZIN AC000      -4.520   0.221  -1.362  0.00  0.00    -0.016 C 
ATOM      3  C9  ZIN AC000      -4.258   1.661  -1.586  0.00  0.00    -0.017 A 
ATOM      4  C10 ZIN AC000      -3.268   1.977  -2.529  0.00  0.00     0.013 A 
ATOM      5  C11 ZIN AC000      -2.951   3.288  -2.803  0.00  0.00     0.001 A 
ATOM      6  C12 ZIN AC000      -3.619   4.302  -2.140  0.00  0.00     0.001 A 
ATOM      7  C13 ZIN AC000      -4.592   3.997  -1.215  0.00  0.00     0.010 A 
ATOM      8  C14 ZIN AC000      -4.928   2.674  -0.923  0.00  0.00    -0.023 A 
ATOM      9  C15 ZIN AC000      -6.014   2.504   0.106  0.00  0.00     0.215 C 
ATOM     10  O16 ZIN AC000      -6.172   1.194   0.588  0.00  0.00    -0.346 OA
ATOM     11  C17 ZIN AC000      -6.676   0.224  -0.201  0.00  0.00     0.080 A 
ATOM     12  C18 ZIN AC000      -7.958  -0.265   0.001  0.00  0.00     0.037 A 
ATOM     13  C19 ZIN AC000      -8.457  -1.244  -0.840  0.00  0.00     0.003 A 
ATOM     14  C20 ZIN AC000      -7.691  -1.739  -1.881  0.00  0.00     0.001 A 
ATOM     15  C21 ZIN AC000      -6.407  -1.265  -2.084  0.00  0.00     0.015 A 
ATOM     16  C22 ZIN AC000      -5.904  -0.291  -1.239  0.00  0.00     0.008 A 
ENDROOT
BRANCH   1  17
ATOM     17  C6  ZIN AC000      -2.081  -0.106  -1.218  0.00  0.00     0.055 C 
BRANCH  17  18
ATOM     18  C5  ZIN AC000      -1.365  -0.700  -0.003  0.00  0.00     0.237 C 
BRANCH  18  19
ATOM     19  N2  ZIN AC000       0.011  -0.188   0.053  0.00  0.00    -0.079 N 
ATOM     20  C1  ZIN AC000      -0.015   1.262   0.288  0.00  0.00     0.269 C 
ATOM     21  H3  ZIN AC000       0.477  -0.378  -0.821  0.00  0.00     0.278 HD
ATOM     22  C4  ZIN AC000       0.735  -0.848   1.148  0.00  0.00     0.269 C 
ENDBRANCH  18  19
ENDBRANCH  17  18
ENDBRANCH   1  17
TORSDOF 3
