REMARK  11 active torsions:
REMARK  status: ('A' for Active; 'I' for Inactive)
REMARK    1  A    between atoms: C2_2  and  C3_3 
REMARK    2  A    between atoms: C3_3  and  C4_4 
REMARK    3  A    between atoms: C4_4  and  C5_5 
REMARK    4  A    between atoms: C6_6  and  C7_7 
REMARK    5  A    between atoms: C7_7  and  C9_9 
REMARK    6  A    between atoms: C13_13  and  O14_14 
REMARK    7  A    between atoms: O14_14  and  C15_15 
REMARK    8  A    between atoms: C15_15  and  C16_16 
REMARK    9  A    between atoms: C16_16  and  N17_17 
REMARK   10  A    between atoms: N17_17  and  C18_18 
REMARK   11  A    between atoms: N17_17  and  C20_20 
ROOT
ATOM      1  C9  ZIN AC000      -4.530  -2.767  -3.034  0.00  0.00     0.018 A 
ATOM      2  C10 ZIN AC000      -5.663  -3.571  -2.891  0.00  0.00     0.036 A 
ATOM      3  C11 ZIN AC000      -6.372  -3.963  -4.005  0.00  0.00     0.042 A 
ATOM      4  I12 ZIN AC000      -8.072  -5.169  -3.793  0.00  0.00    -0.042 I 
ATOM      5  C13 ZIN AC000      -5.962  -3.559  -5.270  0.00  0.00     0.101 A 
ATOM      6  C22 ZIN AC000      -4.835  -2.758  -5.417  0.00  0.00     0.042 A 
ATOM      7  I23 ZIN AC000      -4.222  -2.152  -7.326  0.00  0.00    -0.042 I 
ATOM      8  C24 ZIN AC000      -4.123  -2.358  -4.307  0.00  0.00     0.036 A 
ENDROOT
BRANCH   1   9
ATOM      9  C7  ZIN AC000      -3.767  -2.344  -1.842  0.00  0.00     0.195 C 
ATOM     10  O8  ZIN AC000      -2.842  -1.562  -1.958  0.00  0.00    -0.287 OA
BRANCH   9  11
ATOM     11  C6  ZIN AC000      -4.126  -2.868  -0.516  0.00  0.00     0.058 A 
ATOM     12  C5  ZIN AC000      -3.702  -4.032   0.050  0.00  0.00     0.069 A 
ATOM     13  O31 ZIN AC000      -4.247  -4.171   1.264  0.00  0.00    -0.313 OA
ATOM     14  C30 ZIN AC000      -5.039  -3.122   1.570  0.00  0.00     0.087 A 
ATOM     15  C25 ZIN AC000      -5.019  -2.242   0.478  0.00  0.00     0.014 A 
ATOM     16  C29 ZIN AC000      -5.805  -2.805   2.685  0.00  0.00     0.038 A 
ATOM     17  C26 ZIN AC000      -5.759  -1.065   0.513  0.00  0.00     0.015 A 
ATOM     18  C27 ZIN AC000      -6.514  -0.767   1.629  0.00  0.00     0.001 A 
ATOM     19  C28 ZIN AC000      -6.535  -1.635   2.709  0.00  0.00     0.003 A 
BRANCH  12  20
ATOM     20  C4  ZIN AC000      -2.765  -5.020  -0.597  0.00  0.00     0.066 C 
BRANCH  20  21
ATOM     21  C3  ZIN AC000      -1.321  -4.667  -0.232  0.00  0.00     0.006 C 
BRANCH  21  22
ATOM     22  C2  ZIN AC000      -0.370  -5.669  -0.889  0.00  0.00    -0.004 C 
ATOM     23  C1  ZIN AC000       1.073  -5.317  -0.524  0.00  0.00     0.005 C 
ENDBRANCH  21  22
ENDBRANCH  20  21
ENDBRANCH  12  20
ENDBRANCH   9  11
ENDBRANCH   1   9
BRANCH   5  24
ATOM     24  O14 ZIN AC000      -6.663  -3.947  -6.366  0.00  0.00    -0.347 OA
BRANCH  24  25
ATOM     25  C15 ZIN AC000      -7.725  -3.091  -6.793  0.00  0.00     0.206 C 
BRANCH  25  26
ATOM     26  C16 ZIN AC000      -8.394  -3.688  -8.032  0.00  0.00     0.299 C 
BRANCH  26  27
ATOM     27  N17 ZIN AC000      -9.039  -4.960  -7.676  0.00  0.00     0.089 N 
BRANCH  27  28
ATOM     28  C18 ZIN AC000     -10.155  -4.741  -6.746  0.00  0.00     0.268 C 
ATOM     29  C19 ZIN AC000     -10.639  -6.088  -6.205  0.00  0.00     0.037 C 
ENDBRANCH  27  28
BRANCH  27  30
ATOM     30  C20 ZIN AC000      -9.486  -5.678  -8.877  0.00  0.00     0.268 C 
ATOM     31  C21 ZIN AC000      -8.281  -6.322  -9.564  0.00  0.00     0.037 C 
ENDBRANCH  27  30
ENDBRANCH  26  27
ENDBRANCH  25  26
ENDBRANCH  24  25
ENDBRANCH   5  24
TORSDOF 11
