REMARK  5 active torsions:
REMARK  status: ('A' for Active; 'I' for Inactive)
REMARK    1  A    between atoms: C2_2  and  C3_3 
REMARK    2  A    between atoms: C3_3  and  C4_4 
REMARK    3  A    between atoms: C7_7  and  C8_8 
REMARK    4  A    between atoms: N18_18  and  C19_19 
REMARK    5  A    between atoms: C21_21  and  C22_22 
ROOT
ATOM      1  C4  <0> d          -1.623  -2.144  -0.110  0.00  0.00     0.005 A 
ATOM      2  C5  <0> d          -1.579  -2.816  -1.321  0.00  0.00     0.099 A 
ATOM      3  O6  <0> d          -1.846  -2.163  -2.470  0.00  0.00    -0.302 OA
ATOM      4  C7  <0> d          -2.106  -2.819  -3.610  0.00  0.00     0.156 C 
ATOM      5  C11 <0> d          -1.825  -4.132  -3.784  0.00  0.00     0.100 C 
ATOM      6  C12 <0> d          -1.222  -4.872  -2.657  0.00  0.00     0.187 C 
ATOM      7  O13 <0> d          -0.736  -5.979  -2.799  0.00  0.00    -0.287 OA
ATOM      8  C14 <0> d          -1.245  -4.189  -1.348  0.00  0.00     0.050 A 
ATOM      9  C15 <0> d          -0.949  -4.871  -0.175  0.00  0.00     0.036 A 
ATOM     10  C16 <0> d          -0.990  -4.187   1.035  0.00  0.00     0.043 A 
ATOM     11  C17 <0> d          -1.328  -2.814   1.070  0.00  0.00     0.058 A 
ATOM     12  N18 <0> d          -1.376  -2.160   2.278  0.00  0.00    -0.340 N 
ATOM     13  C21 <0> d          -0.832  -2.697   3.412  0.00  0.00     0.116 C 
ATOM     14  C25 <0> d          -0.481  -4.008   3.486  0.00  0.00     0.092 C 
ATOM     15  C26 <0> d          -0.678  -4.862   2.307  0.00  0.00     0.186 C 
ATOM     16  O27 <0> d          -0.599  -6.076   2.380  0.00  0.00    -0.287 OA
ENDROOT
BRANCH   1  17
ATOM     17  C3  <0> d          -1.986  -0.682  -0.074  0.00  0.00     0.043 C 
BRANCH  17  18
ATOM     18  C2  <0> d          -0.713   0.156   0.058  0.00  0.00     0.000 C 
ATOM     19  C1  <0> d          -1.082   1.641   0.095  0.00  0.00     0.005 C 
ENDBRANCH  17  18
ENDBRANCH   1  17
BRANCH  12  20
ATOM     20  C19 <0> d          -2.029  -0.850   2.352  0.00  0.00     0.125 C 
ATOM     21  C20 <0> d          -3.531  -1.014   2.116  0.00  0.00     0.027 C 
ENDBRANCH  12  20
BRANCH  13  22
ATOM     22  C22 <0> d          -0.621  -1.827   4.592  0.00  0.00     0.227 C 
ATOM     23  O23 <0> d          -0.415  -2.325   5.689  0.00  0.00    -0.643 OA
ATOM     24  O24 <0> d          -0.652  -0.612   4.468  0.00  0.00    -0.643 OA
ENDBRANCH  13  22
BRANCH   4  25
ATOM     25  C8  <0> d          -2.726  -2.074  -4.729  0.00  0.00     0.234 C 
ATOM     26  O9  <0> d          -2.974  -2.645  -5.781  0.00  0.00    -0.642 OA
ATOM     27  O10 <0> d          -2.990  -0.887  -4.601  0.00  0.00    -0.642 OA
ENDBRANCH   4  25
TORSDOF 5
