REMARK  7 active torsions:
REMARK  status: ('A' for Active; 'I' for Inactive)
REMARK    1  A    between atoms: O2_2  and  C3_3 
REMARK    2  A    between atoms: C6_6  and  C7_7 
REMARK    3  A    between atoms: N16_15  and  C17_16 
REMARK    4  A    between atoms: C17_16  and  C18_17 
REMARK    5  A    between atoms: C18_17  and  N19_18 
REMARK    6  A    between atoms: C24_23  and  O26_24 
REMARK    7  A    between atoms: O26_24  and  C27_25 
ROOT
ATOM      1  C7  ZIN AC000       2.587  -2.550   4.310  0.00  0.00     0.124 C 
ATOM      2  S9  ZIN AC000       3.852  -3.702   3.680  0.00  0.00    -0.115 SA
ATOM      3  C10 ZIN AC000       4.117  -4.767   5.060  0.00  0.00     0.028 A 
ATOM      4  C11 ZIN AC000       5.282  -4.678   5.805  0.00  0.00     0.021 A 
ATOM      5  C12 ZIN AC000       5.473  -5.525   6.882  0.00  0.00     0.002 A 
ATOM      6  C13 ZIN AC000       4.508  -6.458   7.214  0.00  0.00     0.002 A 
ATOM      7  C14 ZIN AC000       3.342  -6.551   6.474  0.00  0.00     0.031 A 
ATOM      8  C15 ZIN AC000       3.143  -5.704   5.398  0.00  0.00     0.054 A 
ATOM      9  N16 ZIN AC000       1.960  -5.772   4.645  0.00  0.00    -0.313 N 
ATOM     10  C22 ZIN AC000       1.255  -4.660   4.405  0.00  0.00     0.255 C 
ATOM     11  O23 ZIN AC000       0.348  -4.690   3.600  0.00  0.00    -0.270 OA
ATOM     12  C24 ZIN AC000       1.570  -3.375   5.116  0.00  0.00     0.242 C 
ENDROOT
BRANCH   1  13
ATOM     13  C6  ZIN AC000       1.895  -1.869   3.158  0.00  0.00    -0.041 A 
ATOM     14  C5  ZIN AC000       1.708  -0.499   3.177  0.00  0.00     0.011 A 
ATOM     15  C4  ZIN AC000       1.075   0.128   2.121  0.00  0.00     0.037 A 
ATOM     16  C3  ZIN AC000       0.626  -0.618   1.042  0.00  0.00     0.068 A 
ATOM     17  C31 ZIN AC000       0.809  -1.993   1.027  0.00  0.00     0.037 A 
ATOM     18  C30 ZIN AC000       1.448  -2.615   2.083  0.00  0.00     0.011 A 
BRANCH  16  19
ATOM     19  O2  ZIN AC000       0.002  -0.004   0.002  0.00  0.00    -0.356 OA
ATOM     20  C1  ZIN AC000      -0.152   1.414   0.085  0.00  0.00     0.210 C 
ENDBRANCH  16  19
ENDBRANCH   1  13
BRANCH  12  21
ATOM     21  O26 ZIN AC000       0.349  -2.606   5.278  0.00  0.00    -0.305 OA
BRANCH  21  22
ATOM     22  C27 ZIN AC000      -0.360  -2.817   6.398  0.00  0.00     0.255 C 
ATOM     23  C28 ZIN AC000      -1.639  -2.054   6.635  0.00  0.00     0.126 C 
ATOM     24  O29 ZIN AC000       0.026  -3.618   7.216  0.00  0.00    -0.266 OA
ENDBRANCH  21  22
ENDBRANCH  12  21
BRANCH   9  25
ATOM     25  C17 ZIN AC000       1.497  -7.060   4.122  0.00  0.00     0.162 C 
BRANCH  25  26
ATOM     26  C18 ZIN AC000       0.580  -7.728   5.148  0.00  0.00     0.291 C 
BRANCH  26  27
ATOM     27  N19 ZIN AC000       0.116  -9.019   4.624  0.00  0.00     0.081 N 
ATOM     28  C20 ZIN AC000       1.233  -9.964   4.487  0.00  0.00     0.309 C 
ATOM     29  C21 ZIN AC000      -0.947  -9.580   5.469  0.00  0.00     0.309 C 
ENDBRANCH  26  27
ENDBRANCH  25  26
ENDBRANCH   9  25
TORSDOF 7
