REMARK  6 active torsions:
REMARK  status: ('A' for Active; 'I' for Inactive)
REMARK    1  A    between atoms: C2_2  and  C4_4 
REMARK    2  A    between atoms: C7_7  and  C8_8 
REMARK       I    between atoms: C8_8  and  N10_10 
REMARK    3  A    between atoms: N10_10  and  C11_11 
REMARK    4  A    between atoms: C11_11  and  C13_12 
REMARK    5  A    between atoms: C11_11  and  C20_19 
REMARK    6  A    between atoms: C13_12  and  C14_13 
ROOT
ATOM      1  C8  <0> d          -2.883  -2.572  -2.464  0.00  0.00     0.222 C 
ATOM      2  O9  <0> d          -2.440  -1.774  -3.262  0.00  0.00    -0.273 OA
ATOM      3  N10 <0> d          -2.744  -3.894  -2.686  0.00  0.00    -0.346 N 
ATOM      4  H38 <0> d          -3.098  -4.533  -2.047  0.00  0.00     0.163 HD
ENDROOT
BRANCH   3   5
ATOM      5  C11 <0> d          -2.058  -4.367  -3.891  0.00  0.00     0.189 C 
BRANCH   5   6
ATOM      6  C13 <0> d          -2.547  -5.774  -4.238  0.00  0.00     0.074 C 
BRANCH   6   7
ATOM      7  C14 <0> d          -4.008  -5.722  -4.605  0.00  0.00    -0.056 A 
ATOM      8  C19 <0> d          -4.384  -5.518  -5.920  0.00  0.00     0.007 A 
ATOM      9  C18 <0> d          -5.723  -5.474  -6.257  0.00  0.00     0.001 A 
ATOM     10  C17 <0> d          -6.688  -5.625  -5.278  0.00  0.00     0.000 A 
ATOM     11  C16 <0> d          -6.312  -5.824  -3.963  0.00  0.00     0.001 A 
ATOM     12  C15 <0> d          -4.973  -5.872  -3.626  0.00  0.00     0.007 A 
ENDBRANCH   6   7
ENDBRANCH   5   6
BRANCH   5  13
ATOM     13  C20 <0> d          -0.572  -4.399  -3.644  0.00  0.00     0.197 C 
ATOM     14  O21 <0> d          -0.145  -4.603  -2.520  0.00  0.00    -0.646 OA
ATOM     15  O22 <0> d           0.204  -4.220  -4.567  0.00  0.00    -0.646 OA
ENDBRANCH   5  13
ENDBRANCH   3   5
BRANCH   1  16
ATOM     16  C7  <0> d          -3.588  -2.086  -1.224  0.00  0.00     0.078 C 
ATOM     17  C6  <0> d          -3.609  -0.556  -1.216  0.00  0.00     0.014 C 
ATOM     18  C5  <0> d          -2.173  -0.027  -1.227  0.00  0.00     0.006 C 
ATOM     19  C4  <0> d          -1.433  -0.534   0.013  0.00  0.00    -0.011 C 
ATOM     20  C24 <0> d          -1.413  -2.063   0.004  0.00  0.00     0.006 C 
ATOM     21  C23 <0> d          -2.848  -2.593   0.015  0.00  0.00     0.014 C 
BRANCH  19  22
ATOM     22  C2  <0> d           0.002  -0.004   0.002  0.00  0.00    -0.019 C 
ATOM     23  C1  <0> d          -0.019   1.526   0.010  0.00  0.00     0.010 C 
ATOM     24  C3  <0> d           0.742  -0.511   1.242  0.00  0.00     0.010 C 
ENDBRANCH  19  22
ENDBRANCH   1  16
TORSDOF 6
