REMARK  4 active torsions:
REMARK  status: ('A' for Active; 'I' for Inactive)
REMARK    1  A    between atoms: C2_2  and  C3_3 
REMARK    2  A    between atoms: C3_3  and  C6_5 
REMARK    3  A    between atoms: C6_5  and  N8_6 
REMARK    4  A    between atoms: C6_5  and  C12_10 
ROOT
ATOM      1  C6  ZIN AC000       0.849  -2.021  -1.205  0.00  0.00     0.287 C 
ENDROOT
BRANCH   1   2
ATOM      2  C3  ZIN AC000       0.718  -0.497  -1.257  0.00  0.00     0.022 C 
ATOM      3  C5  ZIN AC000      -0.089  -0.097  -2.493  0.00  0.00     0.012 C 
BRANCH   2   4
ATOM      4  C2  ZIN AC000       0.002  -0.004   0.002  0.00  0.00     0.002 C 
ATOM      5  C1  ZIN AC000      -0.019   1.526   0.010  0.00  0.00     0.005 C 
ENDBRANCH   2   4
ENDBRANCH   1   2
BRANCH   1   6
ATOM      6  N8  ZIN AC000       1.625  -2.406  -0.018  0.00  0.00    -0.065 N 
ATOM      7  H9  ZIN AC000       1.152  -2.080   0.812  0.00  0.00     0.275 HD
ATOM      8  H10 ZIN AC000       1.711  -3.410   0.016  0.00  0.00     0.275 HD
ATOM      9  H11 ZIN AC000       2.543  -1.991  -0.067  0.00  0.00     0.275 HD
ENDBRANCH   1   6
BRANCH   1  10
ATOM     10  C12 ZIN AC000       1.555  -2.507  -2.445  0.00  0.00     0.204 C 
ATOM     11  O13 ZIN AC000       2.770  -2.607  -2.455  0.00  0.00    -0.646 OA
ATOM     12  O14 ZIN AC000       0.910  -2.800  -3.437  0.00  0.00    -0.646 OA
ENDBRANCH   1  10
TORSDOF 4
