REMARK  10 active torsions:
REMARK  status: ('A' for Active; 'I' for Inactive)
REMARK    1  A    between atoms: N1_1  and  C2_2 
REMARK    2  A    between atoms: C6_6  and  C7_7 
REMARK    3  A    between atoms: C7_7  and  C8_8 
REMARK    4  A    between atoms: C8_8  and  C9_9 
REMARK    5  A    between atoms: C12_12  and  C13_13 
REMARK       I    between atoms: C13_13  and  N15_15 
REMARK    6  A    between atoms: N15_15  and  C16_16 
REMARK    7  A    between atoms: C16_16  and  C18_17 
REMARK    8  A    between atoms: C16_16  and  C23_22 
REMARK    9  A    between atoms: C18_17  and  C19_18 
REMARK   10  A    between atoms: C19_18  and  C20_19 
ROOT
ATOM      1  C9  ZIN AC000       1.993  -6.793   1.394  0.00  0.00    -0.058 A 
ATOM      2  C10 ZIN AC000       1.498  -8.082   1.489  0.00  0.00     0.008 A 
ATOM      3  C11 ZIN AC000       2.361  -9.158   1.481  0.00  0.00     0.017 A 
ATOM      4  C12 ZIN AC000       3.736  -8.945   1.376  0.00  0.00     0.032 A 
ATOM      5  C26 ZIN AC000       4.229  -7.642   1.280  0.00  0.00     0.017 A 
ATOM      6  C27 ZIN AC000       3.355  -6.575   1.284  0.00  0.00     0.008 A 
ENDROOT
BRANCH   1   7
ATOM      7  C8  ZIN AC000       1.044  -5.622   1.405  0.00  0.00     0.043 C 
BRANCH   7   8
ATOM      8  C7  ZIN AC000       0.619  -5.298  -0.029  0.00  0.00     0.045 C 
BRANCH   8   9
ATOM      9  C6  ZIN AC000      -0.330  -4.127  -0.018  0.00  0.00    -0.023 A 
ATOM     10  C5  ZIN AC000       0.032  -2.710  -0.013  0.00  0.00     0.087 A 
ATOM     11  C4  ZIN AC000      -1.174  -1.996  -0.003  0.00  0.00     0.163 A 
ATOM     12  C30 ZIN AC000       1.252  -1.999  -0.015  0.00  0.00     0.274 A 
ATOM     13  N3  ZIN AC000      -1.139  -0.655   0.004  0.00  0.00    -0.046 NA
ATOM     14  N29 ZIN AC000      -2.186  -2.910  -0.003  0.00  0.00    -0.349 N 
ATOM     15  C2  ZIN AC000       0.002  -0.004   0.002  0.00  0.00     0.702 A 
ATOM     16  N32 ZIN AC000       1.204  -0.647  -0.013  0.00  0.00    -0.154 N 
ATOM     17  H50 ZIN AC000       2.027  -0.134  -0.015  0.00  0.00     0.187 HD
ATOM     18  C28 ZIN AC000      -1.672  -4.182  -0.012  0.00  0.00     0.098 A 
ATOM     19  H49 ZIN AC000      -3.131  -2.692   0.004  0.00  0.00     0.167 HD
ATOM     20  O31 ZIN AC000       2.320  -2.587  -0.024  0.00  0.00    -0.267 OA
BRANCH  15  21
ATOM     21  N1  ZIN AC000      -0.017   1.368   0.010  0.00  0.00    -0.233 N 
ATOM     22  H33 ZIN AC000       0.817   1.865   0.004  0.00  0.00     0.174 HD
ATOM     23  H34 ZIN AC000      -0.863   1.842   0.016  0.00  0.00     0.174 HD
ENDBRANCH  15  21
ENDBRANCH   8   9
ENDBRANCH   7   8
ENDBRANCH   1   7
BRANCH   4  24
ATOM     24  C13 ZIN AC000       4.667 -10.093   1.365  0.00  0.00     0.252 C 
ATOM     25  O14 ZIN AC000       4.235 -11.226   1.449  0.00  0.00    -0.268 OA
ATOM     26  N15 ZIN AC000       5.994  -9.884   1.264  0.00  0.00    -0.342 N 
ATOM     27  H41 ZIN AC000       6.339  -8.980   1.198  0.00  0.00     0.163 HD
BRANCH  26  28
ATOM     28  C16 ZIN AC000       6.917 -11.023   1.254  0.00  0.00     0.186 C 
BRANCH  28  29
ATOM     29  C18 ZIN AC000       8.207 -10.627   0.535  0.00  0.00     0.046 C 
BRANCH  29  30
ATOM     30  C19 ZIN AC000       7.904 -10.339  -0.937  0.00  0.00     0.116 C 
BRANCH  30  31
ATOM     31  C20 ZIN AC000       9.175  -9.949  -1.645  0.00  0.00     0.172 C 
ATOM     32  O21 ZIN AC000      10.227  -9.905  -1.030  0.00  0.00    -0.648 OA
ATOM     33  O22 ZIN AC000       9.152  -9.677  -2.834  0.00  0.00    -0.648 OA
ENDBRANCH  30  31
ENDBRANCH  29  30
ENDBRANCH  28  29
BRANCH  28  34
ATOM     34  C23 ZIN AC000       7.234 -11.424   2.671  0.00  0.00     0.196 C 
ATOM     35  O24 ZIN AC000       6.736 -10.816   3.603  0.00  0.00    -0.646 OA
ATOM     36  O25 ZIN AC000       7.989 -12.357   2.886  0.00  0.00    -0.646 OA
ENDBRANCH  28  34
ENDBRANCH  26  28
ENDBRANCH   4  24
TORSDOF 10
