REMARK  6 active torsions:
REMARK  status: ('A' for Active; 'I' for Inactive)
REMARK    1  A    between atoms: C2_2  and  N3_3 
REMARK    2  A    between atoms: N3_3  and  C4_4 
REMARK       I    between atoms: N3_3  and  C6_6 
REMARK    3  A    between atoms: C6_6  and  C8_8 
REMARK    4  A    between atoms: C8_8  and  C9_9 
REMARK    5  A    between atoms: C16_16  and  C18_17 
REMARK    6  A    between atoms: C18_17  and  N19_18 
ROOT
ATOM      1  C8  ZIN AC000       0.731  -2.086  -3.476  0.00  0.00     0.074 A 
ATOM      2  C15 ZIN AC000       0.877  -3.067  -4.641  0.00  0.00     0.032 A 
ATOM      3  C16 ZIN AC000       0.475  -1.615  -4.909  0.00  0.00     0.035 A 
ENDROOT
BRANCH   1   4
ATOM      4  C6  ZIN AC000      -0.465  -2.249  -2.574  0.00  0.00     0.233 C 
ATOM      5  N3  ZIN AC000      -1.084  -1.163  -2.071  0.00  0.00    -0.352 N 
ATOM      6  O7  ZIN AC000      -0.870  -3.359  -2.299  0.00  0.00    -0.272 OA
BRANCH   5   7
ATOM      7  C2  ZIN AC000      -2.158  -1.321  -1.088  0.00  0.00     0.121 C 
ATOM      8  C1  ZIN AC000      -3.501  -1.434  -1.814  0.00  0.00     0.026 C 
ENDBRANCH   5   7
BRANCH   5   9
ATOM      9  C4  ZIN AC000      -0.682   0.177  -2.509  0.00  0.00     0.121 C 
ATOM     10  C5  ZIN AC000       0.403   0.715  -1.574  0.00  0.00     0.026 C 
ENDBRANCH   5   9
ENDBRANCH   1   4
BRANCH   1  11
ATOM     11  C9  ZIN AC000       1.994  -1.612  -2.803  0.00  0.00    -0.040 A 
ATOM     12  C14 ZIN AC000       2.486  -2.289  -1.703  0.00  0.00     0.008 A 
ATOM     13  C13 ZIN AC000       3.647  -1.858  -1.088  0.00  0.00     0.001 A 
ATOM     14  C12 ZIN AC000       4.309  -0.743  -1.567  0.00  0.00     0.000 A 
ATOM     15  C11 ZIN AC000       3.814  -0.063  -2.664  0.00  0.00     0.001 A 
ATOM     16  C10 ZIN AC000       2.656  -0.497  -3.282  0.00  0.00     0.008 A 
ENDBRANCH   1  11
BRANCH   3  17
ATOM     17  C18 ZIN AC000      -0.975  -1.346  -5.317  0.00  0.00     0.235 C 
BRANCH  17  18
ATOM     18  N19 ZIN AC000      -1.258  -2.019  -6.591  0.00  0.00    -0.079 N 
ATOM     19  H20 ZIN AC000      -1.117  -3.013  -6.485  0.00  0.00     0.274 HD
ATOM     20  H21 ZIN AC000      -2.214  -1.842  -6.860  0.00  0.00     0.274 HD
ATOM     21  H22 ZIN AC000      -0.637  -1.666  -7.304  0.00  0.00     0.274 HD
ENDBRANCH  17  18
ENDBRANCH   3  17
TORSDOF 6
