REMARK  8 active torsions:
REMARK  status: ('A' for Active; 'I' for Inactive)
REMARK    1  A    between atoms: C3_3  and  C4_4 
REMARK    2  A    between atoms: C4_4  and  C5_5 
REMARK    3  A    between atoms: C5_5  and  N6_6 
REMARK    4  A    between atoms: N6_6  and  C9_9 
REMARK    5  A    between atoms: C9_9  and  C10_10 
REMARK    6  A    between atoms: C13_13  and  C14_14 
REMARK    7  A    between atoms: C15_15  and  C16_16 
REMARK       I    between atoms: C16_16  and  N18_18 
REMARK    8  A    between atoms: N18_18  and  O19_19 
ROOT
ATOM      1  N6  <0> d           1.419   0.374  -4.408  0.00  0.00    -0.071 N 
ATOM      2  H7  <0> d           0.951  -0.304  -4.990  0.00  0.00     0.277 HD
ATOM      3  H8  <0> d           0.931   1.255  -4.459  0.00  0.00     0.277 HD
ENDROOT
BRANCH   1   4
ATOM      4  C5  <0> d           1.432  -0.099  -3.017  0.00  0.00     0.237 C 
BRANCH   4   5
ATOM      5  C4  <0> d          -0.006  -0.283  -2.528  0.00  0.00     0.069 C 
BRANCH   5   6
ATOM      6  C3  <0> d           0.007  -0.768  -1.101  0.00  0.00    -0.022 A 
ATOM      7  C2  <0> d           0.002  -0.004   0.002  0.00  0.00     0.013 A 
ATOM      8  C1  <0> d          -0.018   1.503   0.010  0.00  0.00     0.068 C 
ATOM      9  N28 <0> d           0.024  -0.795   1.118  0.00  0.00    -0.359 N 
ATOM     10  C27 <0> d           0.035  -2.122   0.751  0.00  0.00     0.043 A 
ATOM     11  H50 <0> d           0.029  -0.470   2.032  0.00  0.00     0.166 HD
ATOM     12  C22 <0> d           0.029  -2.164  -0.656  0.00  0.00    -0.001 A 
ATOM     13  C26 <0> d           0.054  -3.314   1.467  0.00  0.00     0.030 A 
ATOM     14  C23 <0> d           0.043  -3.393  -1.316  0.00  0.00     0.014 A 
ATOM     15  C24 <0> d           0.062  -4.552  -0.592  0.00  0.00     0.001 A 
ATOM     16  C25 <0> d           0.067  -4.517   0.795  0.00  0.00     0.002 A 
ENDBRANCH   5   6
ENDBRANCH   4   5
ENDBRANCH   1   4
BRANCH   1  17
ATOM     17  C9  <0> d           2.800   0.551  -4.878  0.00  0.00     0.270 C 
BRANCH  17  18
ATOM     18  C10 <0> d           2.787   1.036  -6.305  0.00  0.00    -0.033 A 
ATOM     19  C21 <0> d           2.767   2.394  -6.570  0.00  0.00     0.009 A 
ATOM     20  C20 <0> d           2.760   2.846  -7.872  0.00  0.00     0.012 A 
ATOM     21  C13 <0> d           2.763   1.928  -8.927  0.00  0.00    -0.036 A 
ATOM     22  C12 <0> d           2.777   0.557  -8.651  0.00  0.00     0.012 A 
ATOM     23  C11 <0> d           2.789   0.121  -7.343  0.00  0.00     0.009 A 
BRANCH  21  24
ATOM     24  C14 <0> d           2.749   2.402 -10.321  0.00  0.00     0.017 C 
ATOM     25  C15 <0> d           2.735   3.724 -10.583  0.00  0.00     0.077 C 
BRANCH  25  26
ATOM     26  C16 <0> d           2.722   4.195 -11.969  0.00  0.00     0.264 C 
ATOM     27  O17 <0> d           2.724   3.393 -12.885  0.00  0.00    -0.266 OA
ATOM     28  N18 <0> d           2.708   5.517 -12.231  0.00  0.00    -0.234 N 
ATOM     29  H42 <0> d           2.706   6.156 -11.502  0.00  0.00     0.197 HD
BRANCH  28  30
ATOM     30  O19 <0> d           2.695   5.973 -13.572  0.00  0.00    -0.287 OA
ATOM     31  H43 <0> d           2.685   6.936 -13.660  0.00  0.00     0.244 HD
ENDBRANCH  28  30
ENDBRANCH  25  26
ENDBRANCH  21  24
ENDBRANCH  17  18
ENDBRANCH   1  17
TORSDOF 8
