REMARK  9 active torsions:
REMARK  status: ('A' for Active; 'I' for Inactive)
REMARK    1  A    between atoms: C2_2  and  C3_3 
REMARK    2  A    between atoms: C3_3  and  C4_4 
REMARK    3  A    between atoms: C4_4  and  O5_5 
REMARK    4  A    between atoms: O5_5  and  C6_6 
REMARK    5  A    between atoms: C9_9  and  O10_10 
REMARK    6  A    between atoms: O10_10  and  C11_11 
REMARK    7  A    between atoms: C11_11  and  C12_12 
REMARK    8  A    between atoms: C12_12  and  C13_13 
REMARK    9  A    between atoms: C13_13  and  N14_14 
ROOT
ATOM      1  C6  ZIN AC000       1.514  -3.834  -2.603  0.00  0.00     0.068 A 
ATOM      2  C7  ZIN AC000       0.979  -4.691  -1.653  0.00  0.00     0.039 A 
ATOM      3  C8  ZIN AC000       1.087  -6.059  -1.818  0.00  0.00     0.039 A 
ATOM      4  C9  ZIN AC000       1.729  -6.574  -2.935  0.00  0.00     0.068 A 
ATOM      5  C21 ZIN AC000       2.262  -5.717  -3.885  0.00  0.00     0.039 A 
ATOM      6  C22 ZIN AC000       2.151  -4.349  -3.722  0.00  0.00     0.039 A 
ENDROOT
BRANCH   4   7
ATOM      7  O10 ZIN AC000       1.835  -7.920  -3.097  0.00  0.00    -0.351 OA
BRANCH   7   8
ATOM      8  C11 ZIN AC000       2.509  -8.381  -4.270  0.00  0.00     0.177 C 
BRANCH   8   9
ATOM      9  C12 ZIN AC000       2.529  -9.911  -4.278  0.00  0.00     0.054 C 
BRANCH   9  10
ATOM     10  C13 ZIN AC000       3.251 -10.404  -5.534  0.00  0.00     0.237 C 
BRANCH  10  11
ATOM     11  N14 ZIN AC000       3.270 -11.873  -5.543  0.00  0.00    -0.067 N 
ATOM     12  H15 ZIN AC000       3.681 -12.209  -4.684  0.00  0.00     0.280 HD
ATOM     13  C20 ZIN AC000       1.896 -12.381  -5.659  0.00  0.00     0.261 C 
ATOM     14  C19 ZIN AC000       1.919 -13.911  -5.668  0.00  0.00     0.195 C 
ATOM     15  O18 ZIN AC000       2.741 -14.365  -6.747  0.00  0.00    -0.388 OA
ATOM     16  C17 ZIN AC000       4.084 -13.876  -6.691  0.00  0.00     0.195 C 
ATOM     17  C16 ZIN AC000       4.065 -12.346  -6.684  0.00  0.00     0.261 C 
ENDBRANCH  10  11
ENDBRANCH   9  10
ENDBRANCH   8   9
ENDBRANCH   7   8
ENDBRANCH   4   7
BRANCH   1  18
ATOM     18  O5  ZIN AC000       1.408  -2.488  -2.441  0.00  0.00    -0.351 OA
BRANCH  18  19
ATOM     19  C4  ZIN AC000       0.739  -2.027  -1.265  0.00  0.00     0.175 C 
BRANCH  19  20
ATOM     20  C3  ZIN AC000       0.718  -0.497  -1.257  0.00  0.00     0.026 C 
BRANCH  20  21
ATOM     21  C2  ZIN AC000       0.002  -0.004   0.002  0.00  0.00    -0.002 C 
ATOM     22  C1  ZIN AC000      -0.019   1.526   0.010  0.00  0.00     0.005 C 
ENDBRANCH  20  21
ENDBRANCH  19  20
ENDBRANCH  18  19
ENDBRANCH   1  18
TORSDOF 9
