REMARK  6 active torsions:
REMARK  status: ('A' for Active; 'I' for Inactive)
REMARK    1  A    between atoms: C3_3  and  C4_4 
REMARK    2  A    between atoms: C4_4  and  C19_18 
REMARK    3  A    between atoms: C5_5  and  C6_6 
REMARK    4  A    between atoms: C6_6  and  C7_7 
REMARK    5  A    between atoms: C7_7  and  N8_8 
REMARK    6  A    between atoms: C13_13  and  C15_14 
ROOT
ATOM      1  C4  ZIN AC000      -0.196  -0.907  -2.374  0.00  0.00    -0.005 C 
ATOM      2  C5  ZIN AC000      -0.414   0.419  -2.417  0.00  0.00    -0.011 C 
ENDROOT
BRANCH   1   3
ATOM      3  C3  ZIN AC000       0.046  -1.574  -1.077  0.00  0.00     0.022 A 
ATOM      4  C2  ZIN AC000      -0.864  -2.293  -0.389  0.00  0.00    -0.044 A 
ATOM      5  C1  ZIN AC000      -2.272  -2.505  -0.881  0.00  0.00     0.049 C 
ATOM      6  C27 ZIN AC000      -0.405  -2.815   0.802  0.00  0.00     0.015 A 
ATOM      7  C26 ZIN AC000       0.871  -2.538   1.087  0.00  0.00     0.051 A 
ATOM      8  S25 ZIN AC000       1.566  -1.552  -0.192  0.00  0.00    -0.101 SA
ENDBRANCH   1   3
BRANCH   1   9
ATOM      9  C19 ZIN AC000      -0.199  -1.698  -3.622  0.00  0.00     0.022 A 
ATOM     10  S24 ZIN AC000      -0.631  -1.084  -5.213  0.00  0.00    -0.101 SA
ATOM     11  C23 ZIN AC000      -0.335  -2.659  -5.936  0.00  0.00     0.051 A 
ATOM     12  C22 ZIN AC000       0.045  -3.525  -4.992  0.00  0.00     0.015 A 
ATOM     13  C20 ZIN AC000       0.123  -3.004  -3.717  0.00  0.00    -0.044 A 
ATOM     14  C21 ZIN AC000       0.534  -3.829  -2.525  0.00  0.00     0.049 C 
ENDBRANCH   1   9
BRANCH   2  15
ATOM     15  C6  ZIN AC000      -0.295   1.244  -1.162  0.00  0.00     0.056 C 
BRANCH  15  16
ATOM     16  C7  ZIN AC000       0.743   2.348  -1.374  0.00  0.00     0.238 C 
BRANCH  16  17
ATOM     17  N8  ZIN AC000       0.912   3.107  -0.127  0.00  0.00    -0.070 N 
ATOM     18  H9  ZIN AC000       0.014   3.444   0.185  0.00  0.00     0.279 HD
ATOM     19  C18 ZIN AC000       1.804   4.247  -0.367  0.00  0.00     0.250 C 
ATOM     20  C13 ZIN AC000       1.918   5.087   0.907  0.00  0.00     0.112 C 
ATOM     21  C12 ZIN AC000       2.489   4.220   2.033  0.00  0.00     0.019 C 
ATOM     22  C11 ZIN AC000       1.592   2.994   2.224  0.00  0.00     0.029 C 
ATOM     23  C10 ZIN AC000       1.489   2.232   0.901  0.00  0.00     0.235 C 
BRANCH  20  24
ATOM     24  C15 ZIN AC000       2.835   6.257   0.659  0.00  0.00     0.178 C 
ATOM     25  O16 ZIN AC000       3.851   6.387   1.320  0.00  0.00    -0.648 OA
ATOM     26  O17 ZIN AC000       2.560   7.074  -0.203  0.00  0.00    -0.648 OA
ENDBRANCH  20  24
ENDBRANCH  16  17
ENDBRANCH  15  16
ENDBRANCH   2  15
TORSDOF 6
