REMARK  2 active torsions:
REMARK  status: ('A' for Active; 'I' for Inactive)
REMARK       I    between atoms: N2_2  and  C4_4 
REMARK    1  A    between atoms: C4_4  and  O6_6 
REMARK    2  A    between atoms: O6_6  and  C7_7 
ROOT
ATOM      1  C7  ZIN AC000      -0.017  -2.717  -2.342  0.00  0.00     0.096 A 
ATOM      2  C8  ZIN AC000       0.006  -2.052  -3.563  0.00  0.00     0.040 A 
ATOM      3  C9  ZIN AC000      -0.032  -2.807  -4.725  0.00  0.00     0.020 A 
ATOM      4  C10 ZIN AC000      -0.091  -4.185  -4.633  0.00  0.00     0.090 A 
ATOM      5  N11 ZIN AC000      -0.112  -4.784  -3.458  0.00  0.00    -0.368 N 
ATOM      6  C12 ZIN AC000      -0.175  -6.247  -3.405  0.00  0.00     0.154 C 
ATOM      7  C13 ZIN AC000      -0.072  -4.103  -2.330  0.00  0.00     0.127 A 
ENDROOT
BRANCH   1   8
ATOM      8  O6  ZIN AC000       0.018  -2.018  -1.176  0.00  0.00    -0.260 OA
BRANCH   8   9
ATOM      9  C4  ZIN AC000      -1.126  -1.426  -0.783  0.00  0.00     0.367 C 
ATOM     10  N2  ZIN AC000      -1.186  -0.803   0.411  0.00  0.00    -0.336 N 
ATOM     11  C1  ZIN AC000      -2.431  -0.159   0.839  0.00  0.00     0.154 C 
ATOM     12  C3  ZIN AC000      -0.007  -0.769   1.280  0.00  0.00     0.154 C 
ATOM     13  O5  ZIN AC000      -2.103  -1.454  -1.504  0.00  0.00    -0.238 OA
ENDBRANCH   8   9
ENDBRANCH   1   8
TORSDOF 2
