REMARK  4 active torsions:
REMARK  status: ('A' for Active; 'I' for Inactive)
REMARK    1  A    between atoms: C2_2  and  S4_3 
REMARK    2  A    between atoms: C2_2  and  C5_4 
REMARK       I    between atoms: C5_4  and  N7_6 
REMARK    3  A    between atoms: N7_6  and  C8_7 
REMARK    4  A    between atoms: C8_7  and  C9_8 
ROOT
ATOM      1  C5  ZIN AC000      -1.412  -0.526   0.013  0.00  0.00     0.231 C 
ATOM      2  O6  ZIN AC000      -2.290   0.115   0.550  0.00  0.00    -0.272 OA
ATOM      3  N7  ZIN AC000      -1.700  -1.704  -0.575  0.00  0.00    -0.350 N 
ATOM      4  H16 ZIN AC000      -0.997  -2.216  -1.004  0.00  0.00     0.163 HD
ENDROOT
BRANCH   1   5
ATOM      5  C2  ZIN AC000       0.002  -0.004   0.002  0.00  0.00     0.132 C 
ATOM      6  C1  ZIN AC000      -0.019   1.526   0.010  0.00  0.00     0.031 C 
BRANCH   5   7
ATOM      7  S4  ZIN AC000       0.879  -0.605   1.472  0.00  0.00    -0.168 SA
ATOM      8  H15 ZIN AC000       0.151  -0.103   2.485  0.00  0.00     0.102 HD
ENDBRANCH   5   7
ENDBRANCH   1   5
BRANCH   3   9
ATOM      9  C8  ZIN AC000      -3.074  -2.211  -0.564  0.00  0.00     0.235 C 
BRANCH   9  10
ATOM     10  C9  ZIN AC000      -3.126  -3.536  -1.281  0.00  0.00     0.191 C 
ATOM     11  O10 ZIN AC000      -2.110  -4.012  -1.757  0.00  0.00    -0.647 OA
ATOM     12  O11 ZIN AC000      -4.185  -4.131  -1.386  0.00  0.00    -0.647 OA
ENDBRANCH   9  10
ENDBRANCH   3   9
TORSDOF 4
