REMARK  4 active torsions:
REMARK  status: ('A' for Active; 'I' for Inactive)
REMARK    1  A    between atoms: N1_1  and  C2_2 
REMARK    2  A    between atoms: C5_5  and  S6_6 
REMARK    3  A    between atoms: S6_6  and  N9_9 
REMARK    4  A    between atoms: N9_9  and  C10_10 
ROOT
ATOM      1  S6  ZIN AC000       0.064  -4.533  -0.024  0.00  0.00     0.276 S 
ATOM      2  O7  ZIN AC000       1.321  -4.920   0.512  0.00  0.00    -0.200 OA
ATOM      3  O8  ZIN AC000      -1.178  -4.954   0.524  0.00  0.00    -0.200 OA
ENDROOT
BRANCH   1   4
ATOM      4  C5  ZIN AC000       0.040  -2.771  -0.014  0.00  0.00     0.080 A 
ATOM      5  C4  ZIN AC000      -1.168  -2.097  -0.004  0.00  0.00     0.027 A 
ATOM      6  C3  ZIN AC000      -1.190  -0.716   0.004  0.00  0.00     0.030 A 
ATOM      7  C2  ZIN AC000       0.002  -0.004   0.002  0.00  0.00     0.025 A 
ATOM      8  C17 ZIN AC000       1.214  -0.684  -0.013  0.00  0.00     0.030 A 
ATOM      9  C16 ZIN AC000       1.229  -2.065  -0.015  0.00  0.00     0.027 A 
BRANCH   7  10
ATOM     10  N1  ZIN AC000      -0.017   1.393   0.010  0.00  0.00    -0.399 N 
ATOM     11  H18 ZIN AC000       0.817   1.889   0.004  0.00  0.00     0.156 HD
ATOM     12  H19 ZIN AC000      -0.863   1.866   0.016  0.00  0.00     0.156 HD
ENDBRANCH   7  10
ENDBRANCH   1   4
BRANCH   1  13
ATOM     13  N9  ZIN AC000       0.063  -5.014  -1.609  0.00  0.00    -0.109 N 
ATOM     14  H22 ZIN AC000      -0.693  -5.505  -1.966  0.00  0.00     0.198 HD
BRANCH  13  15
ATOM     15  C10 ZIN AC000       1.142  -4.715  -2.423  0.00  0.00     0.735 A 
ATOM     16  N15 ZIN AC000       1.273  -5.347  -3.580  0.00  0.00    -0.074 NA
ATOM     17  C14 ZIN AC000       2.290  -5.082  -4.383  0.00  0.00     0.138 A 
ATOM     18  C13 ZIN AC000       3.229  -4.139  -3.997  0.00  0.00     0.040 A 
ATOM     19  C12 ZIN AC000       3.064  -3.500  -2.778  0.00  0.00     0.138 A 
ATOM     20  N11 ZIN AC000       2.021  -3.808  -2.024  0.00  0.00    -0.074 NA
ENDBRANCH  13  15
ENDBRANCH   1  13
TORSDOF 4
