REMARK  1 active torsions:
REMARK  status: ('A' for Active; 'I' for Inactive)
REMARK    1  A    between atoms: C13_11  and  O15_12 
ROOT
ATOM      1  C1  ZIN AC000       0.593   1.880   0.519  0.00  0.00     0.024 C 
ATOM      2  C2  ZIN AC000       0.729   0.358   0.440  0.00  0.00     0.021 C 
ATOM      3  C3  ZIN AC000      -0.633  -0.266   0.205  0.00  0.00     0.018 C 
ATOM      4  C4  ZIN AC000      -1.566   0.255   1.310  0.00  0.00     0.007 C 
ATOM      5  C5  ZIN AC000      -1.030  -0.070   2.702  0.00  0.00     0.003 C 
ATOM      6  C7  ZIN AC000       0.404   0.440   2.895  0.00  0.00    -0.001 C 
ATOM      7  C9  ZIN AC000       0.896  -0.027   4.270  0.00  0.00     0.033 C 
ATOM      8  C10 ZIN AC000      -0.057   0.455   5.325  0.00  0.00    -0.023 C 
ATOM      9  C11 ZIN AC000      -1.313   0.698   5.088  0.00  0.00    -0.072 C 
ATOM     10  C12 ZIN AC000      -2.183   1.172   6.240  0.00  0.00     0.066 C 
ATOM     11  C13 ZIN AC000      -3.430   0.284   6.300  0.00  0.00     0.122 C 
ATOM     12  C16 ZIN AC000      -4.134   0.301   4.943  0.00  0.00     0.033 C 
ATOM     13  C17 ZIN AC000      -3.221  -0.314   3.880  0.00  0.00     0.016 C 
ATOM     14  C18 ZIN AC000      -1.944   0.532   3.757  0.00  0.00    -0.017 C 
ATOM     15  C19 ZIN AC000      -2.342   1.926   3.266  0.00  0.00     0.020 C 
ATOM     16  C20 ZIN AC000       1.257  -0.192   1.792  0.00  0.00     0.006 C 
ATOM     17  C22 ZIN AC000       2.726   0.249   1.756  0.00  0.00     0.013 C 
ATOM     18  C23 ZIN AC000       3.122  -0.019   0.279  0.00  0.00     0.079 C 
ATOM     19  C24 ZIN AC000       1.811  -0.003  -0.534  0.00  0.00     0.135 C 
ATOM     20  O25 ZIN AC000       1.683  -0.238  -1.712  0.00  0.00    -0.297 OA
ENDROOT
BRANCH  11  21
ATOM     21  O15 ZIN AC000      -4.318   0.778   7.304  0.00  0.00    -0.395 OA
ATOM     22  H38 ZIN AC000      -3.937   0.796   8.193  0.00  0.00     0.210 HD
ENDBRANCH  11  21
TORSDOF 1
