REMARK  6 active torsions:
REMARK  status: ('A' for Active; 'I' for Inactive)
REMARK    1  A    between atoms: C2_2  and  C4_3 
REMARK    2  A    between atoms: C2_2  and  O15_14 
REMARK    3  A    between atoms: C4_3  and  N5_4 
REMARK    4  A    between atoms: C9_8  and  N10_9 
REMARK    5  A    between atoms: O15_14  and  C16_15 
REMARK    6  A    between atoms: C16_15  and  P17_16 
ROOT
ATOM      1  N5  ZIN AC000       1.049  -2.291   0.970  0.00  0.00    -0.322 N 
ATOM      2  C6  ZIN AC000       0.217  -2.970   1.809  0.00  0.00     0.212 A 
ATOM      3  N7  ZIN AC000       0.246  -4.241   1.531  0.00  0.00    -0.236 NA
ATOM      4  C8  ZIN AC000       1.096  -4.458   0.499  0.00  0.00     0.149 A 
ATOM      5  C9  ZIN AC000       1.519  -5.594  -0.211  0.00  0.00     0.155 A 
ATOM      6  N11 ZIN AC000       2.393  -5.434  -1.199  0.00  0.00    -0.222 NA
ATOM      7  C12 ZIN AC000       2.860  -4.240  -1.513  0.00  0.00     0.237 A 
ATOM      8  N13 ZIN AC000       2.493  -3.148  -0.876  0.00  0.00    -0.222 NA
ATOM      9  C14 ZIN AC000       1.617  -3.208   0.122  0.00  0.00     0.165 A 
ENDROOT
BRANCH   1  10
ATOM     10  C4  ZIN AC000       1.288  -0.845   0.968  0.00  0.00     0.163 C 
BRANCH  10  11
ATOM     11  C2  ZIN AC000       0.364  -0.176  -0.051  0.00  0.00     0.136 C 
ATOM     12  C1  ZIN AC000       0.524   1.343   0.035  0.00  0.00     0.041 C 
BRANCH  11  13
ATOM     13  O15 ZIN AC000       0.707  -0.617  -1.366  0.00  0.00    -0.371 OA
BRANCH  13  14
ATOM     14  C16 ZIN AC000      -0.374  -0.559  -2.299  0.00  0.00     0.313 C 
BRANCH  14  15
ATOM     15  P17 ZIN AC000      -1.529  -1.932  -1.976  0.00  0.00     0.283 P 
ATOM     16  O18 ZIN AC000      -0.746  -3.289  -1.993  0.00  0.00    -0.638 OA
ATOM     17  O19 ZIN AC000      -2.199  -1.732  -0.574  0.00  0.00    -0.638 OA
ATOM     18  O20 ZIN AC000      -2.636  -1.955  -3.085  0.00  0.00    -0.638 OA
ENDBRANCH  14  15
ENDBRANCH  13  14
ENDBRANCH  11  13
ENDBRANCH  10  11
ENDBRANCH   1  10
BRANCH   5  19
ATOM     19  N10 ZIN AC000       1.035  -6.850   0.110  0.00  0.00    -0.382 N 
ATOM     20  H27 ZIN AC000       0.397  -6.954   0.833  0.00  0.00     0.157 HD
ATOM     21  H28 ZIN AC000       1.335  -7.627  -0.388  0.00  0.00     0.157 HD
ENDBRANCH   5  19
TORSDOF 6
