REMARK  7 active torsions:
REMARK  status: ('A' for Active; 'I' for Inactive)
REMARK    1  A    between atoms: C2_2  and  C3_3 
REMARK    2  A    between atoms: C6_6  and  C7_7 
REMARK    3  A    between atoms: C7_7  and  C8_8 
REMARK    4  A    between atoms: C8_8  and  O9_9 
REMARK    5  A    between atoms: O9_9  and  C10_10 
REMARK    6  A    between atoms: C13_13  and  C14_14 
REMARK    7  A    between atoms: C14_14  and  C15_15 
ROOT
ATOM      1  C10 <0> d          -8.476  -0.805  -1.709  0.00  0.00     0.068 A 
ATOM      2  C11 <0> d          -8.075   0.358  -2.350  0.00  0.00     0.037 A 
ATOM      3  C12 <0> d          -8.990   1.097  -3.075  0.00  0.00     0.010 A 
ATOM      4  C13 <0> d         -10.305   0.679  -3.160  0.00  0.00    -0.056 A 
ATOM      5  C23 <0> d         -10.707  -0.480  -2.521  0.00  0.00     0.010 A 
ATOM      6  C24 <0> d          -9.794  -1.225  -1.800  0.00  0.00     0.037 A 
ENDROOT
BRANCH   1   7
ATOM      7  O9  <0> d          -7.577  -1.533  -0.996  0.00  0.00    -0.351 OA
BRANCH   7   8
ATOM      8  C8  <0> d          -6.236  -1.040  -0.945  0.00  0.00     0.181 C 
BRANCH   8   9
ATOM      9  C7  <0> d          -5.377  -1.986  -0.104  0.00  0.00     0.086 C 
BRANCH   9  10
ATOM     10  C6  <0> d          -3.963  -1.466  -0.050  0.00  0.00     0.036 A 
ATOM     11  C5  <0> d          -3.362  -1.249   1.175  0.00  0.00     0.028 A 
ATOM     12  C4  <0> d          -2.061  -0.770   1.213  0.00  0.00     0.010 A 
ATOM     13  C3  <0> d          -1.412  -0.526   0.013  0.00  0.00    -0.041 A 
ATOM     14  C26 <0> d          -2.080  -0.761  -1.174  0.00  0.00     0.124 A 
ATOM     15  N25 <0> d          -3.315  -1.222  -1.173  0.00  0.00    -0.265 NA
BRANCH  13  16
ATOM     16  C2  <0> d           0.002  -0.004   0.002  0.00  0.00     0.035 C 
ATOM     17  C1  <0> d          -0.019   1.526   0.010  0.00  0.00     0.010 C 
ENDBRANCH  13  16
ENDBRANCH   9  10
ENDBRANCH   8   9
ENDBRANCH   7   8
ENDBRANCH   1   7
BRANCH   4  18
ATOM     18  C14 <0> d         -11.302   1.487  -3.950  0.00  0.00     0.063 C 
BRANCH  18  19
ATOM     19  C15 <0> d         -11.320   0.998  -5.400  0.00  0.00     0.153 A 
ATOM     20  C21 <0> d         -12.358   1.748  -6.205  0.00  0.00     0.239 A 
ATOM     21  N20 <0> d         -11.848   2.443  -7.212  0.00  0.00    -0.287 N 
ATOM     22  O22 <0> d         -13.544   1.722  -5.952  0.00  0.00    -0.272 OA
ATOM     23  C18 <0> d         -10.536   2.447  -7.458  0.00  0.00     0.287 A 
ATOM     24  H42 <0> d         -12.440   2.957  -7.783  0.00  0.00     0.172 HD
ATOM     25  S17 <0> d          -9.757   1.418  -6.242  0.00  0.00    -0.054 SA
ATOM     26  O19 <0> d          -9.976   3.047  -8.355  0.00  0.00    -0.260 OA
ENDBRANCH  18  19
ENDBRANCH   4  18
TORSDOF 7
