REMARK  6 active torsions:
REMARK  status: ('A' for Active; 'I' for Inactive)
REMARK    1  A    between atoms: C2_2  and  O3_3 
REMARK    2  A    between atoms: C2_2  and  C19_16 
REMARK    3  A    between atoms: O3_3  and  C4_4 
REMARK    4  A    between atoms: C19_16  and  O20_17 
REMARK    5  A    between atoms: C19_16  and  C21_18 
REMARK    6  A    between atoms: C19_16  and  C27_24 
ROOT
ATOM      1  O1  <0> d           0.500   0.498   0.374  0.00  0.00    -0.261 OA
ATOM      2  C2  <0> d           0.120   1.643   0.305  0.00  0.00     0.303 C 
ENDROOT
BRANCH   2   3
ATOM      3  O3  <0> d           0.990   2.650   0.479  0.00  0.00    -0.313 OA
BRANCH   3   4
ATOM      4  C4  <0> d           2.371   2.290   0.746  0.00  0.00     0.136 C 
ATOM      5  C13 <0> d           3.019   3.370   1.617  0.00  0.00     0.066 C 
ATOM      6  C11 <0> d           3.075   4.676   0.808  0.00  0.00     0.193 C 
ATOM      7  C10 <0> d           1.696   4.904   0.143  0.00  0.00     0.036 C 
ATOM      8  N14 <0> d           4.000   4.424  -0.340  0.00  0.00    -0.058 N 
ATOM      9  C9  <0> d           1.782   4.163  -1.209  0.00  0.00     0.036 C 
ATOM     10  C7  <0> d           3.206   3.556  -1.237  0.00  0.00     0.193 C 
ATOM     11  C6  <0> d           3.130   2.167  -0.579  0.00  0.00     0.066 C 
ATOM     12  C18 <0> d           4.362   5.679  -1.006  0.00  0.00     0.238 C 
ATOM     13  C15 <0> d           5.221   3.743   0.118  0.00  0.00     0.238 C 
ATOM     14  C17 <0> d           5.904   5.777  -0.972  0.00  0.00     0.030 C 
ATOM     15  C16 <0> d           6.345   4.300  -0.794  0.00  0.00     0.030 C 
ENDBRANCH   3   4
ENDBRANCH   2   3
BRANCH   2  16
ATOM     16  C19 <0> d          -1.329   1.940   0.019  0.00  0.00     0.201 C 
BRANCH  16  17
ATOM     17  O20 <0> d          -1.726   3.111   0.735  0.00  0.00    -0.371 OA
ATOM     18  H49 <0> d          -1.635   3.034   1.695  0.00  0.00     0.212 HD
ENDBRANCH  16  17
BRANCH  16  19
ATOM     19  C21 <0> d          -1.513   2.169  -1.459  0.00  0.00    -0.009 A 
ATOM     20  C26 <0> d          -2.356   3.170  -1.904  0.00  0.00     0.011 A 
ATOM     21  C25 <0> d          -2.521   3.383  -3.260  0.00  0.00     0.001 A 
ATOM     22  C24 <0> d          -1.849   2.590  -4.171  0.00  0.00     0.000 A 
ATOM     23  C23 <0> d          -1.009   1.585  -3.726  0.00  0.00     0.001 A 
ATOM     24  C22 <0> d          -0.841   1.375  -2.370  0.00  0.00     0.011 A 
ENDBRANCH  16  19
BRANCH  16  25
ATOM     25  C27 <0> d          -2.177   0.772   0.455  0.00  0.00    -0.009 A 
ATOM     26  C32 <0> d          -2.054  -0.448  -0.183  0.00  0.00     0.011 A 
ATOM     27  C31 <0> d          -2.828  -1.520   0.220  0.00  0.00     0.001 A 
ATOM     28  C30 <0> d          -3.732  -1.369   1.254  0.00  0.00     0.000 A 
ATOM     29  C29 <0> d          -3.860  -0.147   1.889  0.00  0.00     0.001 A 
ATOM     30  C28 <0> d          -3.082   0.923   1.489  0.00  0.00     0.011 A 
ENDBRANCH  16  25
ENDBRANCH   2  16
TORSDOF 6
