REMARK  6 active torsions:
REMARK  status: ('A' for Active; 'I' for Inactive)
REMARK    1  A    between atoms: C3_3  and  C4_4 
REMARK    2  A    between atoms: C4_4  and  N5_5 
REMARK    3  A    between atoms: C6_6  and  N7_7 
REMARK    4  A    between atoms: C11_11  and  N13_12 
REMARK    5  A    between atoms: N23_22  and  C24_23 
REMARK    6  A    between atoms: C24_23  and  C25_24 
ROOT
ATOM      1  C1  <0> d          -0.352   1.612   0.174  0.00  0.00     0.112 C 
ATOM      2  C2  <0> d          -0.236   0.146   0.113  0.00  0.00    -0.109 C 
ATOM      3  C3  <0> d          -0.143  -1.024   0.065  0.00  0.00    -0.086 C 
ENDROOT
BRANCH   3   4
ATOM      4  C4  <0> d          -0.027  -2.490   0.005  0.00  0.00     0.241 C 
BRANCH   4   5
ATOM      5  N5  <0> d          -1.365  -3.086   0.006  0.00  0.00    -0.161 N 
ATOM      6  C20 <0> d          -2.176  -3.304  -1.101  0.00  0.00     0.167 A 
ATOM      7  C19 <0> d          -3.343  -3.889  -0.622  0.00  0.00     0.186 A 
ATOM      8  C21 <0> d          -2.040  -3.072  -2.481  0.00  0.00     0.283 A 
ATOM      9  N18 <0> d          -3.223  -4.000   0.703  0.00  0.00    -0.044 NA
ATOM     10  N38 <0> d          -4.341  -4.223  -1.523  0.00  0.00    -0.285 N 
ATOM     11  C6  <0> d          -2.056  -3.527   1.090  0.00  0.00     0.708 A 
ATOM     12  C36 <0> d          -4.168  -3.989  -2.838  0.00  0.00     0.333 A 
ATOM     13  C39 <0> d          -5.580  -4.842  -1.047  0.00  0.00     0.163 C 
ATOM     14  N23 <0> d          -3.044  -3.423  -3.311  0.00  0.00    -0.257 N 
ATOM     15  O37 <0> d          -5.052  -4.292  -3.615  0.00  0.00    -0.246 OA
ATOM     16  O22 <0> d          -1.026  -2.560  -2.923  0.00  0.00    -0.265 OA
BRANCH  11  17
ATOM     17  N7  <0> d          -1.606  -3.488   2.390  0.00  0.00    -0.214 N 
ATOM     18  C17 <0> d          -1.892  -2.328   3.245  0.00  0.00     0.173 C 
ATOM     19  C11 <0> d          -2.552  -2.827   4.540  0.00  0.00     0.202 C 
ATOM     20  C10 <0> d          -1.654  -3.882   5.190  0.00  0.00     0.036 C 
ATOM     21  C9  <0> d          -1.493  -5.072   4.242  0.00  0.00     0.022 C 
ATOM     22  C8  <0> d          -0.826  -4.601   2.946  0.00  0.00     0.141 C 
BRANCH  19  23
ATOM     23  N13 <0> d          -2.732  -1.699   5.463  0.00  0.00    -0.073 N 
ATOM     24  H14 <0> d          -1.834  -1.291   5.675  0.00  0.00     0.274 HD
ATOM     25  H15 <0> d          -3.324  -1.004   5.034  0.00  0.00     0.274 HD
ATOM     26  H16 <0> d          -3.162  -2.027   6.315  0.00  0.00     0.274 HD
ENDBRANCH  19  23
ENDBRANCH  11  17
BRANCH  14  27
ATOM     27  C24 <0> d          -2.908  -3.183  -4.750  0.00  0.00     0.217 C 
BRANCH  27  28
ATOM     28  C25 <0> d          -2.280  -4.388  -5.402  0.00  0.00     0.145 A 
ATOM     29  N35 <0> d          -3.065  -5.340  -5.848  0.00  0.00    -0.231 NA
ATOM     30  C34 <0> d          -2.543  -6.423  -6.437  0.00  0.00     0.071 A 
ATOM     31  C29 <0> d          -1.133  -6.520  -6.557  0.00  0.00     0.017 A 
ATOM     32  C33 <0> d          -3.347  -7.461  -6.932  0.00  0.00     0.032 A 
ATOM     33  C27 <0> d          -0.348  -5.468  -6.054  0.00  0.00     0.045 A 
ATOM     34  C30 <0> d          -0.565  -7.649  -7.166  0.00  0.00     0.016 A 
ATOM     35  N26 <0> d          -0.960  -4.442  -5.495  0.00  0.00    -0.236 NA
ATOM     36  C28 <0> d           1.155  -5.511  -6.150  0.00  0.00     0.071 C 
ATOM     37  C31 <0> d          -1.377  -8.638  -7.634  0.00  0.00     0.001 A 
ATOM     38  C32 <0> d          -2.763  -8.543  -7.517  0.00  0.00     0.002 A 
ENDBRANCH  27  28
ENDBRANCH  14  27
ENDBRANCH   4   5
ENDBRANCH   3   4
TORSDOF 6
