REMARK  6 active torsions:
REMARK  status: ('A' for Active; 'I' for Inactive)
REMARK    1  A    between atoms: C5_5  and  C6_6 
REMARK    2  A    between atoms: C6_6  and  C14_14 
REMARK    3  A    between atoms: C7_7  and  C8_8 
REMARK    4  A    between atoms: C8_8  and  N9_9 
REMARK    5  A    between atoms: C18_18  and  C19_19 
REMARK    6  A    between atoms: C20_20  and  C21_21 
ROOT
ATOM      1  C6  ZIN AC000       0.113  -4.264  -0.128  0.00  0.00     0.001 C 
ATOM      2  C7  ZIN AC000       1.055  -4.986   0.489  0.00  0.00     0.018 C 
ENDROOT
BRANCH   1   3
ATOM      3  C5  ZIN AC000       0.179  -2.783  -0.104  0.00  0.00    -0.024 A 
ATOM      4  C4  ZIN AC000       0.375  -2.072  -1.287  0.00  0.00     0.013 A 
ATOM      5  C3  ZIN AC000       0.437  -0.694  -1.259  0.00  0.00     0.007 A 
ATOM      6  C2  ZIN AC000       0.304  -0.017  -0.060  0.00  0.00    -0.062 A 
ATOM      7  C1  ZIN AC000       0.372   1.488  -0.035  0.00  0.00     0.048 C 
ATOM      8  C26 ZIN AC000       0.114  -0.718   1.118  0.00  0.00     0.007 A 
ATOM      9  C25 ZIN AC000       0.046  -2.096   1.101  0.00  0.00     0.013 A 
ENDBRANCH   1   3
BRANCH   1  10
ATOM     10  C14 ZIN AC000      -0.998  -4.945  -0.836  0.00  0.00     0.068 A 
ATOM     11  N24 ZIN AC000      -0.727  -5.801  -1.808  0.00  0.00    -0.248 NA
ATOM     12  C18 ZIN AC000      -1.694  -6.436  -2.463  0.00  0.00     0.057 A 
ATOM     13  C17 ZIN AC000      -3.036  -6.207  -2.149  0.00  0.00     0.031 A 
ATOM     14  C16 ZIN AC000      -3.351  -5.311  -1.139  0.00  0.00     0.005 A 
ATOM     15  C15 ZIN AC000      -2.319  -4.671  -0.474  0.00  0.00     0.032 A 
BRANCH  12  16
ATOM     16  C19 ZIN AC000      -1.347  -7.386  -3.535  0.00  0.00     0.038 C 
ATOM     17  C20 ZIN AC000      -0.053  -7.612  -3.844  0.00  0.00     0.086 C 
BRANCH  17  18
ATOM     18  C21 ZIN AC000       0.290  -8.554  -4.907  0.00  0.00     0.198 C 
ATOM     19  O22 ZIN AC000      -0.596  -9.138  -5.518  0.00  0.00    -0.645 OA
ATOM     20  O23 ZIN AC000       1.465  -8.759  -5.187  0.00  0.00    -0.645 OA
ENDBRANCH  17  18
ENDBRANCH  12  16
ENDBRANCH   1  10
BRANCH   2  21
ATOM     21  C8  ZIN AC000       0.910  -6.483   0.593  0.00  0.00     0.300 C 
BRANCH  21  22
ATOM     22  N9  ZIN AC000       2.093  -7.131   0.012  0.00  0.00     0.091 N 
ATOM     23  C13 ZIN AC000       1.886  -8.589  -0.122  0.00  0.00     0.273 C 
ATOM     24  C12 ZIN AC000       3.250  -9.263   0.120  0.00  0.00     0.032 C 
ATOM     25  C11 ZIN AC000       4.224  -8.103   0.428  0.00  0.00     0.032 C 
ATOM     26  C10 ZIN AC000       3.277  -6.969   0.894  0.00  0.00     0.273 C 
ENDBRANCH  21  22
ENDBRANCH   2  21
TORSDOF 6
