REMARK  5 active torsions:
REMARK  status: ('A' for Active; 'I' for Inactive)
REMARK    1  A    between atoms: O2_2  and  C3_3 
REMARK    2  A    between atoms: C5_5  and  C6_6 
REMARK    3  A    between atoms: C14_13  and  O16_14 
REMARK    4  A    between atoms: C29_25  and  O30_26 
REMARK    5  A    between atoms: C32_28  and  O33_29 
ROOT
ATOM      1  C6  ZIN AC000      -4.871   0.264   0.038  0.00  0.00     0.066 C 
ATOM      2  C8  ZIN AC000      -5.705  -0.077  -1.185  0.00  0.00    -0.037 A 
ATOM      3  C9  ZIN AC000      -5.008  -0.199  -2.388  0.00  0.00     0.048 A 
ATOM      4  C10 ZIN AC000      -5.728  -0.519  -3.527  0.00  0.00     0.105 A 
ATOM      5  C11 ZIN AC000      -7.116  -0.717  -3.468  0.00  0.00     0.105 A 
ATOM      6  C12 ZIN AC000      -7.801  -0.591  -2.272  0.00  0.00     0.050 A 
ATOM      7  C13 ZIN AC000      -7.070  -0.260  -1.129  0.00  0.00    -0.019 A 
ATOM      8  C14 ZIN AC000      -7.869  -0.100   0.152  0.00  0.00     0.158 C 
ATOM      9  C17 ZIN AC000      -7.030   0.702   1.129  0.00  0.00     0.058 C 
ATOM     10  C19 ZIN AC000      -7.496   0.645   2.592  0.00  0.00     0.187 C 
ATOM     11  O20 ZIN AC000      -6.243   0.806   3.344  0.00  0.00    -0.321 OA
ATOM     12  C21 ZIN AC000      -5.181   0.427   2.594  0.00  0.00     0.264 C 
ATOM     13  O22 ZIN AC000      -4.021   0.493   2.925  0.00  0.00    -0.265 OA
ATOM     14  C23 ZIN AC000      -5.685  -0.079   1.268  0.00  0.00     0.107 C 
ATOM     15  O25 ZIN AC000      -7.566  -1.019  -4.707  0.00  0.00    -0.323 OA
ATOM     16  C26 ZIN AC000      -6.511  -0.622  -5.608  0.00  0.00     0.352 C 
ATOM     17  O27 ZIN AC000      -5.316  -0.696  -4.803  0.00  0.00    -0.323 OA
ENDROOT
BRANCH   1  18
ATOM     18  C5  ZIN AC000      -3.598  -0.543   0.028  0.00  0.00    -0.043 A 
ATOM     19  C4  ZIN AC000      -2.375   0.101   0.019  0.00  0.00     0.047 A 
ATOM     20  C3  ZIN AC000      -1.201  -0.638   0.010  0.00  0.00     0.104 A 
ATOM     21  C32 ZIN AC000      -1.256  -2.027   0.003  0.00  0.00     0.135 A 
ATOM     22  C29 ZIN AC000      -2.488  -2.670   0.017  0.00  0.00     0.104 A 
ATOM     23  C28 ZIN AC000      -3.657  -1.924   0.026  0.00  0.00     0.047 A 
BRANCH  20  24
ATOM     24  O2  ZIN AC000       0.002  -0.004   0.002  0.00  0.00    -0.353 OA
ATOM     25  C1  ZIN AC000      -0.017   1.425   0.010  0.00  0.00     0.210 C 
ENDBRANCH  20  24
BRANCH  21  26
ATOM     26  O33 ZIN AC000      -0.106  -2.755  -0.006  0.00  0.00    -0.351 OA
ATOM     27  C34 ZIN AC000       0.429  -3.105  -1.284  0.00  0.00     0.210 C 
ENDBRANCH  21  26
BRANCH  22  28
ATOM     28  O30 ZIN AC000      -2.547  -4.028   0.015  0.00  0.00    -0.353 OA
ATOM     29  C31 ZIN AC000      -3.847  -4.621   0.024  0.00  0.00     0.210 C 
ENDBRANCH  22  28
ENDBRANCH   1  18
BRANCH   8  30
ATOM     30  O16 ZIN AC000      -9.089   0.593  -0.123  0.00  0.00    -0.390 OA
ATOM     31  H41 ZIN AC000      -9.662   0.144  -0.759  0.00  0.00     0.210 HD
ENDBRANCH   8  30
TORSDOF 5
