REMARK  2 active torsions:
REMARK  status: ('A' for Active; 'I' for Inactive)
REMARK    1  A    between atoms: C10_9  and  O11_10 
REMARK    2  A    between atoms: C22_19  and  O24_20 
ROOT
ATOM      1  C1  ZIN AC000      -0.019   1.526   0.010  0.00  0.00     0.018 C 
ATOM      2  C2  ZIN AC000       0.002  -0.004   0.002  0.00  0.00    -0.014 C 
ATOM      3  C3  ZIN AC000      -1.414  -0.543   0.048  0.00  0.00     0.013 C 
ATOM      4  C4  ZIN AC000      -2.097   0.044   1.298  0.00  0.00     0.010 C 
ATOM      5  C5  ZIN AC000      -1.313  -0.307   2.554  0.00  0.00     0.023 C 
ATOM      6  C7  ZIN AC000      -1.943   0.265   3.790  0.00  0.00    -0.047 A 
ATOM      7  C8  ZIN AC000      -3.328   0.347   3.844  0.00  0.00     0.011 A 
ATOM      8  C9  ZIN AC000      -3.958   0.855   4.960  0.00  0.00     0.037 A 
ATOM      9  C10 ZIN AC000      -3.201   1.286   6.040  0.00  0.00     0.066 A 
ATOM     10  C12 ZIN AC000      -1.820   1.208   5.984  0.00  0.00     0.044 A 
ATOM     11  C13 ZIN AC000      -1.186   0.701   4.858  0.00  0.00    -0.049 A 
ATOM     12  C14 ZIN AC000       0.320   0.667   4.860  0.00  0.00     0.039 C 
ATOM     13  C15 ZIN AC000       0.856  -0.233   3.748  0.00  0.00     0.010 C 
ATOM     14  C16 ZIN AC000       0.144   0.163   2.454  0.00  0.00    -0.001 C 
ATOM     15  C18 ZIN AC000       0.751  -0.534   1.256  0.00  0.00     0.001 C 
ATOM     16  C20 ZIN AC000       2.216  -0.237   0.954  0.00  0.00     0.008 C 
ATOM     17  C21 ZIN AC000       2.334  -0.287  -0.590  0.00  0.00     0.033 C 
ATOM     18  C22 ZIN AC000       0.900  -0.511  -1.131  0.00  0.00     0.126 C 
ENDROOT
BRANCH   9  19
ATOM     19  O11 ZIN AC000      -3.813   1.784   7.147  0.00  0.00    -0.361 OA
ATOM     20  H34 ZIN AC000      -4.021   1.116   7.814  0.00  0.00     0.217 HD
ENDBRANCH   9  19
BRANCH  18  21
ATOM     21  O24 ZIN AC000       0.692   0.232  -2.335  0.00  0.00    -0.395 OA
ATOM     22  H44 ZIN AC000       1.281  -0.020  -3.059  0.00  0.00     0.210 HD
ENDBRANCH  18  21
TORSDOF 2
