REMARK  12 active torsions:
REMARK  status: ('A' for Active; 'I' for Inactive)
REMARK    1  A    between atoms: C2_2  and  O3_3 
REMARK    2  A    between atoms: O3_3  and  C4_4 
REMARK    3  A    between atoms: C4_4  and  C6_6 
REMARK    4  A    between atoms: C6_6  and  C8_7 
REMARK    5  A    between atoms: C6_6  and  N16_15 
REMARK    6  A    between atoms: C8_7  and  C9_8 
REMARK    7  A    between atoms: C9_8  and  C10_9 
REMARK    8  A    between atoms: N16_15  and  C17_16 
REMARK    9  A    between atoms: C17_16  and  C20_18 
REMARK       I    between atoms: C20_18  and  N22_20 
REMARK   10  A    between atoms: C26_24  and  O27_25 
REMARK   11  A    between atoms: C29_27  and  O30_28 
REMARK   12  A    between atoms: C35_33  and  C37_34 
ROOT
ATOM      1  C20 <0> d          -5.793  -6.479  -3.245  0.00  0.00     0.254 C 
ATOM      2  O21 <0> d          -6.222  -6.814  -2.162  0.00  0.00    -0.271 OA
ATOM      3  N22 <0> d          -4.560  -6.864  -3.631  0.00  0.00    -0.331 N 
ATOM      4  C23 <0> d          -3.964  -6.375  -4.878  0.00  0.00     0.166 C 
ATOM      5  C24 <0> d          -2.529  -5.980  -4.635  0.00  0.00    -0.031 A 
ATOM      6  C25 <0> d          -1.876  -5.270  -5.635  0.00  0.00     0.049 A 
ATOM      7  C26 <0> d          -0.556  -4.888  -5.478  0.00  0.00     0.102 A 
ATOM      8  C29 <0> d           0.120  -5.220  -4.308  0.00  0.00     0.102 A 
ATOM      9  C32 <0> d          -0.535  -5.922  -3.314  0.00  0.00     0.047 A 
ATOM     10  C33 <0> d          -1.863  -6.300  -3.473  0.00  0.00    -0.045 A 
ATOM     11  C34 <0> d          -2.517  -7.040  -2.335  0.00  0.00     0.075 C 
ATOM     12  C35 <0> d          -3.755  -7.787  -2.813  0.00  0.00     0.192 C 
ENDROOT
BRANCH   1  13
ATOM     13  C17 <0> d          -6.639  -5.632  -4.161  0.00  0.00     0.308 C 
ATOM     14  C19 <0> d          -6.434  -4.154  -3.822  0.00  0.00     0.053 C 
BRANCH  13  15
ATOM     15  N16 <0> d          -8.054  -5.983  -3.984  0.00  0.00     0.111 N 
ATOM     16  H54 <0> d          -8.442  -5.525  -3.173  0.00  0.00     0.318 HD
BRANCH  15  17
ATOM     17  C6  <0> d          -8.830  -5.664  -5.190  0.00  0.00     0.320 C 
BRANCH  17  18
ATOM     18  C4  <0> d          -9.251  -4.218  -5.149  0.00  0.00     0.292 C 
ATOM     19  O5  <0> d          -8.936  -3.524  -4.211  0.00  0.00    -0.263 OA
BRANCH  18  20
ATOM     20  O3  <0> d          -9.974  -3.700  -6.154  0.00  0.00    -0.320 OA
BRANCH  20  21
ATOM     21  C2  <0> d         -10.344  -2.300  -6.048  0.00  0.00     0.174 C 
ATOM     22  C1  <0> d         -11.160  -1.893  -7.276  0.00  0.00     0.034 C 
ENDBRANCH  20  21
ENDBRANCH  18  20
ENDBRANCH  17  18
BRANCH  17  23
ATOM     23  C8  <0> d         -10.072  -6.555  -5.248  0.00  0.00     0.051 C 
BRANCH  23  24
ATOM     24  C9  <0> d          -9.646  -8.015  -5.415  0.00  0.00     0.041 C 
BRANCH  24  25
ATOM     25  C10 <0> d         -10.870  -8.893  -5.472  0.00  0.00    -0.058 A 
ATOM     26  C15 <0> d         -11.466  -9.169  -6.688  0.00  0.00     0.007 A 
ATOM     27  C14 <0> d         -12.586  -9.977  -6.740  0.00  0.00     0.001 A 
ATOM     28  C13 <0> d         -13.115 -10.502  -5.576  0.00  0.00     0.000 A 
ATOM     29  C12 <0> d         -12.521 -10.222  -4.359  0.00  0.00     0.001 A 
ATOM     30  C11 <0> d         -11.399  -9.417  -4.307  0.00  0.00     0.007 A 
ENDBRANCH  24  25
ENDBRANCH  23  24
ENDBRANCH  17  23
ENDBRANCH  15  17
ENDBRANCH  13  15
ENDBRANCH   1  13
BRANCH  12  31
ATOM     31  C37 <0> d          -4.560  -8.252  -1.627  0.00  0.00     0.197 C 
ATOM     32  O38 <0> d          -4.221  -7.936  -0.499  0.00  0.00    -0.646 OA
ATOM     33  O39 <0> d          -5.549  -8.944  -1.795  0.00  0.00    -0.646 OA
ENDBRANCH  12  31
BRANCH   7  34
ATOM     34  O27 <0> d           0.076  -4.192  -6.460  0.00  0.00    -0.353 OA
ATOM     35  C28 <0> d          -0.684  -3.887  -7.632  0.00  0.00     0.210 C 
ENDBRANCH   7  34
BRANCH   8  36
ATOM     36  O30 <0> d           1.420  -4.854  -4.143  0.00  0.00    -0.353 OA
ATOM     37  C31 <0> d           2.049  -5.229  -2.916  0.00  0.00     0.210 C 
ENDBRANCH   8  36
TORSDOF 12
