REMARK  5 active torsions:
REMARK  status: ('A' for Active; 'I' for Inactive)
REMARK    1  A    between atoms: O2_2  and  C3_3 
REMARK    2  A    between atoms: C6_6  and  N7_7 
REMARK    3  A    between atoms: C9_9  and  C10_10 
REMARK       I    between atoms: C10_10  and  N11_11 
REMARK    4  A    between atoms: N17_17  and  C18_18 
REMARK    5  A    between atoms: C21_21  and  N22_22 
ROOT
ATOM      1  N7  ZIN AC000      -4.882  -2.462  -0.122  0.00  0.00    -0.227 N 
ATOM      2  N8  ZIN AC000      -5.887  -2.106   0.607  0.00  0.00    -0.161 NA
ATOM      3  C9  ZIN AC000      -6.872  -2.990   0.508  0.00  0.00     0.153 A 
ATOM      4  C13 ZIN AC000      -6.443  -3.989  -0.361  0.00  0.00     0.014 A 
ATOM      5  C14 ZIN AC000      -5.173  -3.620  -0.758  0.00  0.00     0.136 A 
ATOM      6  C15 ZIN AC000      -4.416  -4.448  -1.708  0.00  0.00     0.277 C 
ATOM      7  O16 ZIN AC000      -3.244  -4.232  -1.950  0.00  0.00    -0.265 OA
ATOM      8  N17 ZIN AC000      -5.087  -5.463  -2.301  0.00  0.00    -0.312 N 
ATOM      9  C31 ZIN AC000      -6.537  -5.591  -2.232  0.00  0.00     0.137 C 
ATOM     10  C32 ZIN AC000      -7.096  -5.249  -0.851  0.00  0.00     0.064 C 
ENDROOT
BRANCH   8  11
ATOM     11  C18 ZIN AC000      -4.359  -6.428  -3.008  0.00  0.00     0.037 A 
ATOM     12  C30 ZIN AC000      -4.492  -6.525  -4.387  0.00  0.00     0.032 A 
ATOM     13  C29 ZIN AC000      -3.770  -7.473  -5.084  0.00  0.00     0.032 A 
ATOM     14  C21 ZIN AC000      -2.920  -8.336  -4.405  0.00  0.00     0.037 A 
ATOM     15  C20 ZIN AC000      -2.792  -8.243  -3.026  0.00  0.00     0.032 A 
ATOM     16  C19 ZIN AC000      -3.510  -7.292  -2.329  0.00  0.00     0.032 A 
BRANCH  14  17
ATOM     17  N22 ZIN AC000      -2.192  -9.302  -5.113  0.00  0.00    -0.318 N 
ATOM     18  C27 ZIN AC000      -2.510 -10.584  -4.928  0.00  0.00     0.224 C 
ATOM     19  C26 ZIN AC000      -1.785 -11.721  -5.588  0.00  0.00     0.103 C 
ATOM     20  O28 ZIN AC000      -3.440 -10.844  -4.194  0.00  0.00    -0.273 OA
ATOM     21  C25 ZIN AC000      -0.967 -11.202  -6.773  0.00  0.00     0.011 C 
ATOM     22  C24 ZIN AC000      -0.160  -9.983  -6.308  0.00  0.00     0.021 C 
ATOM     23  C23 ZIN AC000      -1.130  -8.843  -5.999  0.00  0.00     0.132 C 
ENDBRANCH  14  17
ENDBRANCH   8  11
BRANCH   1  24
ATOM     24  C6  ZIN AC000      -3.679  -1.756  -0.240  0.00  0.00     0.059 A 
ATOM     25  C5  ZIN AC000      -3.067  -1.232   0.892  0.00  0.00     0.034 A 
ATOM     26  C4  ZIN AC000      -1.881  -0.535   0.775  0.00  0.00     0.039 A 
ATOM     27  C3  ZIN AC000      -1.301  -0.357  -0.473  0.00  0.00     0.068 A 
ATOM     28  C34 ZIN AC000      -1.915  -0.876  -1.605  0.00  0.00     0.039 A 
ATOM     29  C33 ZIN AC000      -3.098  -1.578  -1.489  0.00  0.00     0.034 A 
BRANCH  27  30
ATOM     30  O2  ZIN AC000      -0.134   0.329  -0.588  0.00  0.00    -0.356 OA
ATOM     31  C1  ZIN AC000       0.443   0.835   0.618  0.00  0.00     0.210 C 
ENDBRANCH  27  30
ENDBRANCH   1  24
BRANCH   3  32
ATOM     32  C10 ZIN AC000      -8.180  -2.925   1.191  0.00  0.00     0.270 C 
ATOM     33  N11 ZIN AC000      -8.463  -1.893   2.010  0.00  0.00    -0.365 N 
ATOM     34  H40 ZIN AC000      -7.807  -1.192   2.150  0.00  0.00     0.159 HD
ATOM     35  H41 ZIN AC000      -9.322  -1.850   2.459  0.00  0.00     0.159 HD
ATOM     36  O12 ZIN AC000      -9.002  -3.804   1.015  0.00  0.00    -0.266 OA
ENDBRANCH   3  32
TORSDOF 5
