REMARK  4 active torsions:
REMARK  status: ('A' for Active; 'I' for Inactive)
REMARK    1  A    between atoms: N1_1  and  C2_2 
REMARK    2  A    between atoms: N6_6  and  C7_7 
REMARK    3  A    between atoms: C11_10  and  C13_11 
REMARK    4  A    between atoms: C13_11  and  O14_12 
ROOT
ATOM      1  C2  ZIN AC000       0.002  -0.004   0.002  0.00  0.00     0.167 A 
ATOM      2  N3  ZIN AC000      -1.135  -0.686   0.004  0.00  0.00    -0.173 NA
ATOM      3  C4  ZIN AC000      -1.130  -2.018  -0.004  0.00  0.00     0.352 A 
ATOM      4  O5  ZIN AC000      -2.190  -2.622  -0.002  0.00  0.00    -0.244 OA
ATOM      5  N6  ZIN AC000       0.025  -2.709  -0.013  0.00  0.00    -0.277 N 
ATOM      6  C16 ZIN AC000       1.221  -2.052  -0.015  0.00  0.00     0.144 A 
ATOM      7  C17 ZIN AC000       1.232  -0.697  -0.013  0.00  0.00     0.177 A 
ATOM      8  F18 ZIN AC000       2.401  -0.020  -0.015  0.00  0.00    -0.201 F 
ENDROOT
BRANCH   5   9
ATOM      9  C7  ZIN AC000      -0.002  -4.174  -0.021  0.00  0.00     0.243 C 
ATOM     10  O15 ZIN AC000       1.337  -4.685   0.007  0.00  0.00    -0.348 OA
ATOM     11  C11 ZIN AC000       1.375  -6.103   0.261  0.00  0.00     0.209 C 
ATOM     12  S10 ZIN AC000      -0.102  -6.422   1.302  0.00  0.00    -0.131 SA
ATOM     13  C9  ZIN AC000      -0.734  -4.695   1.249  0.00  0.00     0.131 C 
BRANCH  11  14
ATOM     14  C13 ZIN AC000       2.652  -6.482   1.014  0.00  0.00     0.207 C 
BRANCH  14  15
ATOM     15  O14 ZIN AC000       2.732  -5.727   2.225  0.00  0.00    -0.398 OA
ATOM     16  H25 ZIN AC000       3.518  -5.916   2.755  0.00  0.00     0.209 HD
ENDBRANCH  14  15
ENDBRANCH  11  14
ENDBRANCH   5   9
BRANCH   1  17
ATOM     17  N1  ZIN AC000      -0.017   1.372   0.010  0.00  0.00    -0.381 N 
ATOM     18  H19 ZIN AC000       0.817   1.868   0.004  0.00  0.00     0.157 HD
ATOM     19  H20 ZIN AC000      -0.863   1.846   0.016  0.00  0.00     0.157 HD
ENDBRANCH   1  17
TORSDOF 4
