REMARK  9 active torsions:
REMARK  status: ('A' for Active; 'I' for Inactive)
REMARK    1  A    between atoms: N5_4  and  C7_6 
REMARK    2  A    between atoms: C7_6  and  C8_7 
REMARK    3  A    between atoms: C8_7  and  C10_8 
REMARK    4  A    between atoms: C8_7  and  C17_15 
REMARK    5  A    between atoms: C10_8  and  C11_9 
REMARK       I    between atoms: C17_15  and  N19_17 
REMARK    6  A    between atoms: N19_17  and  C20_18 
REMARK    7  A    between atoms: C20_18  and  C21_19 
REMARK    8  A    between atoms: C26_24  and  C28_26 
REMARK    9  A    between atoms: C32_30  and  O33_31 
ROOT
ATOM      1  C1  ZIN AC000       0.549   1.292   1.062  0.00  0.00     0.012 C 
ATOM      2  C2  ZIN AC000       0.442  -0.192   0.705  0.00  0.00     0.020 C 
ATOM      3  C4  ZIN AC000       0.890  -0.403  -0.743  0.00  0.00     0.240 C 
ATOM      4  N5  ZIN AC000       0.790  -1.826  -1.087  0.00  0.00    -0.070 N 
ATOM      5  H6  ZIN AC000      -0.156  -2.142  -0.937  0.00  0.00     0.279 HD
ATOM      6  C24 ZIN AC000       1.704  -2.608  -0.246  0.00  0.00     0.236 C 
ATOM      7  C25 ZIN AC000       1.287  -2.482   1.221  0.00  0.00     0.042 C 
ATOM      8  C26 ZIN AC000       1.341  -1.009   1.637  0.00  0.00    -0.010 C 
ATOM      9  C27 ZIN AC000       0.848  -0.866   3.079  0.00  0.00     0.021 C 
ENDROOT
BRANCH   4  10
ATOM     10  C7  ZIN AC000       1.149  -2.013  -2.499  0.00  0.00     0.249 C 
BRANCH  10  11
ATOM     11  C8  ZIN AC000       0.926  -3.475  -2.893  0.00  0.00     0.108 C 
BRANCH  11  12
ATOM     12  C10 ZIN AC000       1.417  -3.698  -4.325  0.00  0.00     0.054 C 
BRANCH  12  13
ATOM     13  C11 ZIN AC000       2.912  -3.518  -4.378  0.00  0.00    -0.057 A 
ATOM     14  C16 ZIN AC000       3.747  -4.570  -4.052  0.00  0.00     0.007 A 
ATOM     15  C15 ZIN AC000       5.118  -4.407  -4.105  0.00  0.00     0.001 A 
ATOM     16  C14 ZIN AC000       5.655  -3.188  -4.474  0.00  0.00     0.000 A 
ATOM     17  C13 ZIN AC000       4.820  -2.134  -4.795  0.00  0.00     0.001 A 
ATOM     18  C12 ZIN AC000       3.449  -2.299  -4.747  0.00  0.00     0.007 A 
ENDBRANCH  12  13
ENDBRANCH  11  12
BRANCH  11  19
ATOM     19  C17 ZIN AC000      -0.543  -3.799  -2.809  0.00  0.00     0.224 C 
ATOM     20  O18 ZIN AC000      -1.352  -2.910  -2.646  0.00  0.00    -0.273 OA
ATOM     21  N19 ZIN AC000      -0.958  -5.077  -2.916  0.00  0.00    -0.351 N 
ATOM     22  H49 ZIN AC000      -0.309  -5.795  -2.966  0.00  0.00     0.163 HD
BRANCH  21  23
ATOM     23  C20 ZIN AC000      -2.391  -5.380  -2.956  0.00  0.00     0.235 C 
BRANCH  23  24
ATOM     24  C21 ZIN AC000      -2.586  -6.870  -3.077  0.00  0.00     0.191 C 
ATOM     25  O22 ZIN AC000      -1.617  -7.609  -3.125  0.00  0.00    -0.647 OA
ATOM     26  O23 ZIN AC000      -3.712  -7.335  -3.126  0.00  0.00    -0.647 OA
ENDBRANCH  23  24
ENDBRANCH  21  23
ENDBRANCH  11  19
ENDBRANCH  10  11
ENDBRANCH   4  10
BRANCH   8  27
ATOM     27  C28 ZIN AC000       2.758  -0.508   1.535  0.00  0.00    -0.047 A 
ATOM     28  C34 ZIN AC000       3.765  -1.363   1.133  0.00  0.00     0.044 A 
ATOM     29  C32 ZIN AC000       5.069  -0.900   1.034  0.00  0.00     0.066 A 
ATOM     30  C31 ZIN AC000       5.360   0.419   1.350  0.00  0.00     0.036 A 
ATOM     31  C30 ZIN AC000       4.350   1.269   1.758  0.00  0.00     0.003 A 
ATOM     32  C29 ZIN AC000       3.050   0.806   1.850  0.00  0.00     0.008 A 
BRANCH  29  33
ATOM     33  O33 ZIN AC000       6.061  -1.738   0.634  0.00  0.00    -0.361 OA
ATOM     34  H62 ZIN AC000       6.490  -2.214   1.358  0.00  0.00     0.217 HD
ENDBRANCH  29  33
ENDBRANCH   8  27
TORSDOF 9
