REMARK  10 active torsions:
REMARK  status: ('A' for Active; 'I' for Inactive)
REMARK    1  A    between atoms: C2_2  and  C4_3 
REMARK    2  A    between atoms: C2_2  and  N13_12 
REMARK    3  A    between atoms: C4_3  and  C5_4 
REMARK    4  A    between atoms: C5_4  and  C6_5 
REMARK    5  A    between atoms: C9_8  and  O10_9 
REMARK    6  A    between atoms: N13_12  and  C16_15 
REMARK    7  A    between atoms: C16_15  and  C17_16 
REMARK    8  A    between atoms: C17_16  and  C18_17 
REMARK    9  A    between atoms: C21_20  and  O22_21 
REMARK   10  A    between atoms: C23_22  and  O24_23 
ROOT
ATOM      1  N13 <0> d           0.713  -0.491   1.192  0.00  0.00    -0.071 N 
ATOM      2  H14 <0> d           0.290  -0.099   2.020  0.00  0.00     0.277 HD
ATOM      3  H15 <0> d           0.655  -1.497   1.230  0.00  0.00     0.277 HD
ENDROOT
BRANCH   1   4
ATOM      4  C2  <0> d           0.002  -0.004   0.002  0.00  0.00     0.182 C 
ATOM      5  C1  <0> d          -0.019   1.526   0.010  0.00  0.00     0.040 C 
BRANCH   4   6
ATOM      6  C4  <0> d          -1.433  -0.534   0.013  0.00  0.00     0.037 C 
BRANCH   6   7
ATOM      7  C5  <0> d          -1.416  -2.058  -0.121  0.00  0.00     0.040 C 
BRANCH   7   8
ATOM      8  C6  <0> d          -2.829  -2.579  -0.111  0.00  0.00    -0.058 A 
ATOM      9  C12 <0> d          -3.525  -2.714  -1.298  0.00  0.00     0.010 A 
ATOM     10  C11 <0> d          -4.819  -3.196  -1.292  0.00  0.00     0.037 A 
ATOM     11  C9  <0> d          -5.425  -3.536  -0.091  0.00  0.00     0.065 A 
ATOM     12  C8  <0> d          -4.727  -3.396   1.100  0.00  0.00     0.037 A 
ATOM     13  C7  <0> d          -3.431  -2.917   1.087  0.00  0.00     0.010 A 
BRANCH  11  14
ATOM     14  O10 <0> d          -6.700  -4.006  -0.081  0.00  0.00    -0.361 OA
ATOM     15  H35 <0> d          -7.373  -3.317   0.002  0.00  0.00     0.217 HD
ENDBRANCH  11  14
ENDBRANCH   7   8
ENDBRANCH   6   7
ENDBRANCH   4   6
ENDBRANCH   1   4
BRANCH   1  16
ATOM     16  C16 <0> d           2.122  -0.083   1.122  0.00  0.00     0.237 C 
BRANCH  16  17
ATOM     17  C17 <0> d           2.862  -0.589   2.361  0.00  0.00     0.066 C 
BRANCH  17  18
ATOM     18  C18 <0> d           4.308  -0.171   2.290  0.00  0.00    -0.054 A 
ATOM     19  C25 <0> d           4.704   1.038   2.832  0.00  0.00     0.046 A 
ATOM     20  C23 <0> d           6.033   1.422   2.771  0.00  0.00     0.099 A 
ATOM     21  C21 <0> d           6.966   0.594   2.155  0.00  0.00     0.098 A 
ATOM     22  C20 <0> d           6.562  -0.614   1.609  0.00  0.00     0.040 A 
ATOM     23  C19 <0> d           5.234  -0.993   1.677  0.00  0.00     0.010 A 
BRANCH  20  24
ATOM     24  O24 <0> d           6.425   2.609   3.308  0.00  0.00    -0.358 OA
ATOM     25  H45 <0> d           6.384   3.352   2.691  0.00  0.00     0.217 HD
ENDBRANCH  20  24
BRANCH  21  26
ATOM     26  O22 <0> d           8.272   0.968   2.088  0.00  0.00    -0.358 OA
ATOM     27  H44 <0> d           8.495   1.478   1.297  0.00  0.00     0.217 HD
ENDBRANCH  21  26
ENDBRANCH  17  18
ENDBRANCH  16  17
ENDBRANCH   1  16
TORSDOF 10
