REMARK  3 active torsions:
REMARK  status: ('A' for Active; 'I' for Inactive)
REMARK    1  A    between atoms: C2_2  and  C3_3 
REMARK    2  A    between atoms: C3_3  and  C6_5 
REMARK    3  A    between atoms: C6_5  and  C7_6 
ROOT
ATOM      1  C6  <0> d           0.849  -2.021  -1.205  0.00  0.00     0.127 A 
ATOM      2  C9  <0> d           1.788  -2.376  -0.067  0.00  0.00     0.266 A 
ATOM      3  O10 <0> d           2.924  -1.952  -0.034  0.00  0.00    -0.270 OA
ATOM      4  N11 <0> d           1.312  -3.180   0.907  0.00  0.00    -0.157 NA
ATOM      5  C12 <0> d           0.062  -3.655   0.885  0.00  0.00     0.351 A 
ATOM      6  O13 <0> d          -0.284  -4.372   1.803  0.00  0.00    -0.244 OA
ATOM      7  N14 <0> d          -0.836  -3.398  -0.073  0.00  0.00    -0.276 N 
ATOM      8  C15 <0> d          -0.546  -2.612  -1.132  0.00  0.00     0.244 A 
ATOM      9  O16 <0> d          -1.369  -2.389  -1.993  0.00  0.00    -0.272 OA
ATOM     10  H30 <0> d          -1.722  -3.788  -0.005  0.00  0.00     0.173 HD
ENDROOT
BRANCH   1  11
ATOM     11  C3  <0> d           0.718  -0.497  -1.257  0.00  0.00     0.008 C 
ATOM     12  C5  <0> d          -0.089  -0.097  -2.493  0.00  0.00     0.011 C 
BRANCH  11  13
ATOM     13  C2  <0> d           0.002  -0.004   0.002  0.00  0.00     0.001 C 
ATOM     14  C1  <0> d          -0.019   1.526   0.010  0.00  0.00     0.005 C 
ENDBRANCH  11  13
ENDBRANCH   1  11
BRANCH   1  15
ATOM     15  C7  <0> d           1.495  -2.485  -2.512  0.00  0.00     0.025 C 
ATOM     16  C8  <0> d           1.643  -4.008  -2.496  0.00  0.00     0.007 C 
ENDBRANCH   1  15
TORSDOF 3
