REMARK  6 active torsions:
REMARK  status: ('A' for Active; 'I' for Inactive)
REMARK    1  A    between atoms: C2_2  and  N4_4 
REMARK    2  A    between atoms: N4_4  and  C5_5 
REMARK    3  A    between atoms: C11_11  and  N12_12 
REMARK       I    between atoms: N15_15  and  C16_16 
REMARK    4  A    between atoms: C16_16  and  C18_18 
REMARK    5  A    between atoms: C22_22  and  N23_23 
REMARK    6  A    between atoms: N23_23  and  S24_24 
ROOT
ATOM      1  N12 ZIN AC000       1.067  -1.362  -2.635  0.00  0.00    -0.264 NA
ATOM      2  C13 ZIN AC000      -0.118  -0.681  -3.175  0.00  0.00     0.117 C 
ATOM      3  C14 ZIN AC000      -0.132  -0.821  -4.701  0.00  0.00     0.141 C 
ATOM      4  N15 ZIN AC000      -0.026  -2.248  -5.040  0.00  0.00    -0.344 N 
ATOM      5  C16 ZIN AC000      -0.899  -2.824  -5.890  0.00  0.00     0.270 C 
ATOM      6  O17 ZIN AC000      -1.782  -2.159  -6.397  0.00  0.00    -0.266 OA
ATOM      7  C32 ZIN AC000       1.058  -3.031  -4.427  0.00  0.00     0.141 C 
ATOM      8  C33 ZIN AC000       1.026  -2.804  -2.912  0.00  0.00     0.117 C 
ENDROOT
BRANCH   5   9
ATOM      9  C18 ZIN AC000      -0.784  -4.256  -6.204  0.00  0.00     0.102 A 
ATOM     10  N31 ZIN AC000       0.376  -5.002  -6.128  0.00  0.00    -0.351 N 
ATOM     11  C30 ZIN AC000       0.094  -6.299  -6.493  0.00  0.00     0.043 A 
ATOM     12  H57 ZIN AC000       1.246  -4.667  -5.860  0.00  0.00     0.166 HD
ATOM     13  C20 ZIN AC000      -1.277  -6.356  -6.812  0.00  0.00    -0.005 A 
ATOM     14  C29 ZIN AC000       0.872  -7.449  -6.592  0.00  0.00     0.033 A 
ATOM     15  C19 ZIN AC000      -1.801  -5.055  -6.620  0.00  0.00     0.049 A 
ATOM     16  C21 ZIN AC000      -1.844  -7.569  -7.227  0.00  0.00     0.043 A 
ATOM     17  C22 ZIN AC000      -1.054  -8.697  -7.318  0.00  0.00     0.043 A 
ATOM     18  C28 ZIN AC000       0.303  -8.633  -7.001  0.00  0.00     0.032 A 
BRANCH  17  19
ATOM     19  N23 ZIN AC000      -1.616  -9.909  -7.732  0.00  0.00    -0.285 N 
ATOM     20  H51 ZIN AC000      -2.458 -10.208  -7.354  0.00  0.00     0.178 HD
BRANCH  19  21
ATOM     21  S24 ZIN AC000      -0.845 -10.835  -8.869  0.00  0.00     0.227 S 
ATOM     22  C25 ZIN AC000      -0.765  -9.773 -10.338  0.00  0.00     0.186 C 
ATOM     23  O26 ZIN AC000       0.454 -11.040  -8.331  0.00  0.00    -0.206 OA
ATOM     24  O27 ZIN AC000      -1.727 -11.926  -9.090  0.00  0.00    -0.206 OA
ENDBRANCH  19  21
ENDBRANCH  17  19
ENDBRANCH   5   9
BRANCH   1  25
ATOM     25  C11 ZIN AC000       1.203  -1.119  -1.270  0.00  0.00     0.109 A 
ATOM     26  C5  ZIN AC000       2.381  -1.487  -0.614  0.00  0.00     0.067 A 
ATOM     27  C6  ZIN AC000       2.500  -1.238   0.746  0.00  0.00     0.034 A 
ATOM     28  C7  ZIN AC000       1.435  -0.636   1.403  0.00  0.00     0.019 A 
ATOM     29  C8  ZIN AC000       0.300  -0.305   0.692  0.00  0.00     0.089 A 
ATOM     30  N9  ZIN AC000       0.212  -0.553  -0.602  0.00  0.00    -0.355 N 
ATOM     31  H10 ZIN AC000      -0.598  -0.309  -1.076  0.00  0.00     0.166 HD
BRANCH  26  32
ATOM     32  N4  ZIN AC000       3.429  -2.091  -1.320  0.00  0.00    -0.383 N 
ATOM     33  H41 ZIN AC000       3.316  -2.316  -2.257  0.00  0.00     0.160 HD
BRANCH  32  34
ATOM     34  C2  ZIN AC000       4.694  -2.385  -0.644  0.00  0.00     0.073 C 
ATOM     35  C1  ZIN AC000       4.590  -3.735   0.069  0.00  0.00     0.031 C 
ATOM     36  C3  ZIN AC000       5.823  -2.438  -1.675  0.00  0.00     0.031 C 
ENDBRANCH  32  34
ENDBRANCH  26  32
ENDBRANCH   1  25
TORSDOF 6
