REMARK  7 active torsions:
REMARK  status: ('A' for Active; 'I' for Inactive)
REMARK    1  A    between atoms: C2_2  and  N4_4 
REMARK    2  A    between atoms: N4_4  and  C6_6 
REMARK    3  A    between atoms: N4_4  and  C25_25 
REMARK    4  A    between atoms: C6_6  and  C7_7 
REMARK    5  A    between atoms: C7_7  and  O8_8 
REMARK    6  A    between atoms: O8_8  and  C9_9 
REMARK    7  A    between atoms: C9_9  and  C11_11 
ROOT
ATOM      1  C11 ZIN AC000       2.414   0.187   3.555  0.00  0.00     0.157 C 
ATOM      2  C12 ZIN AC000       2.277   1.625   3.976  0.00  0.00    -0.006 A 
ATOM      3  C13 ZIN AC000       1.914   2.574   3.037  0.00  0.00     0.011 A 
ATOM      4  C14 ZIN AC000       1.782   3.900   3.403  0.00  0.00     0.001 A 
ATOM      5  C15 ZIN AC000       2.012   4.283   4.712  0.00  0.00     0.003 A 
ATOM      6  C16 ZIN AC000       2.375   3.340   5.652  0.00  0.00     0.038 A 
ATOM      7  C17 ZIN AC000       2.509   2.006   5.287  0.00  0.00     0.083 A 
ATOM      8  O18 ZIN AC000       2.866   1.097   6.226  0.00  0.00    -0.310 OA
ATOM      9  C19 ZIN AC000       3.390  -0.096   5.854  0.00  0.00     0.083 A 
ATOM     10  C20 ZIN AC000       4.123  -0.832   6.778  0.00  0.00     0.038 A 
ATOM     11  C21 ZIN AC000       4.665  -2.050   6.420  0.00  0.00     0.003 A 
ATOM     12  C22 ZIN AC000       4.479  -2.540   5.140  0.00  0.00     0.001 A 
ATOM     13  C23 ZIN AC000       3.751  -1.810   4.220  0.00  0.00     0.011 A 
ATOM     14  C24 ZIN AC000       3.205  -0.589   4.573  0.00  0.00    -0.006 A 
ENDROOT
BRANCH   1  15
ATOM     15  C9  ZIN AC000       1.044  -0.423   3.419  0.00  0.00     0.272 C 
ATOM     16  O10 ZIN AC000       0.744  -1.389   4.082  0.00  0.00    -0.264 OA
BRANCH  15  17
ATOM     17  O8  ZIN AC000       0.155   0.104   2.562  0.00  0.00    -0.319 OA
BRANCH  17  18
ATOM     18  C7  ZIN AC000      -1.145  -0.536   2.483  0.00  0.00     0.206 C 
BRANCH  18  19
ATOM     19  C6  ZIN AC000      -1.966   0.113   1.367  0.00  0.00     0.264 C 
BRANCH  19  20
ATOM     20  N4  ZIN AC000      -1.353  -0.194   0.067  0.00  0.00    -0.062 N 
ATOM     21  C5  ZIN AC000      -1.192  -1.647  -0.068  0.00  0.00     0.273 C 
BRANCH  20  22
ATOM     22  C2  ZIN AC000      -0.037   0.454  -0.018  0.00  0.00     0.182 C 
ATOM     23  C1  ZIN AC000       0.419   0.491  -1.478  0.00  0.00     0.040 C 
ATOM     24  C3  ZIN AC000      -0.136   1.883   0.521  0.00  0.00     0.040 C 
ENDBRANCH  20  22
BRANCH  20  25
ATOM     25  C25 ZIN AC000      -2.216   0.306  -1.011  0.00  0.00     0.182 C 
ATOM     26  C26 ZIN AC000      -1.986   1.808  -1.195  0.00  0.00     0.040 C 
ATOM     27  C27 ZIN AC000      -1.880  -0.424  -2.313  0.00  0.00     0.040 C 
ENDBRANCH  20  25
ENDBRANCH  19  20
ENDBRANCH  18  19
ENDBRANCH  17  18
ENDBRANCH  15  17
ENDBRANCH   1  15
TORSDOF 7
