REMARK  6 active torsions:
REMARK  status: ('A' for Active; 'I' for Inactive)
REMARK    1  A    between atoms: C5_5  and  C6_6 
REMARK    2  A    between atoms: C6_6  and  S7_7 
REMARK    3  A    between atoms: S7_7  and  C8_8 
REMARK    4  A    between atoms: C8_8  and  C10_9 
REMARK    5  A    between atoms: C8_8  and  C17_16 
REMARK    6  A    between atoms: C10_9  and  N11_10 
ROOT
ATOM      1  C8  ZIN AC000      -0.003   8.196   1.464  0.00  0.00     0.100 C 
ENDROOT
BRANCH   1   2
ATOM      2  S7  ZIN AC000      -0.400   6.441   1.691  0.00  0.00    -0.153 SA
BRANCH   2   3
ATOM      3  C6  ZIN AC000      -0.718   5.872  -0.002  0.00  0.00     0.113 C 
BRANCH   3   4
ATOM      4  C5  ZIN AC000      -0.950   4.383   0.004  0.00  0.00    -0.049 A 
ATOM      5  C4  ZIN AC000      -2.228   3.883   0.166  0.00  0.00     0.009 A 
ATOM      6  C3  ZIN AC000      -2.442   2.517   0.171  0.00  0.00     0.024 A 
ATOM      7  C2  ZIN AC000      -1.375   1.650   0.015  0.00  0.00     0.034 A 
ATOM      8 Cl1  ZIN AC000      -1.642  -0.065   0.021  0.00  0.00    -0.084 Cl
ATOM      9  C26 ZIN AC000      -0.094   2.151  -0.140  0.00  0.00     0.024 A 
ATOM     10  C25 ZIN AC000       0.117   3.517  -0.151  0.00  0.00     0.009 A 
ENDBRANCH   3   4
ENDBRANCH   2   3
ENDBRANCH   1   2
BRANCH   1  11
ATOM     11  C10 ZIN AC000      -1.249   8.944   0.987  0.00  0.00     0.149 C 
BRANCH  11  12
ATOM     12  N11 ZIN AC000      -2.298   8.843   2.006  0.00  0.00    -0.350 N 
ATOM     13  C16 ZIN AC000      -2.554   9.739   2.984  0.00  0.00     0.182 A 
ATOM     14  N14 ZIN AC000      -3.561   9.308   3.693  0.00  0.00    -0.361 N 
ATOM     15  C13 ZIN AC000      -3.974   8.130   3.203  0.00  0.00     0.106 A 
ATOM     16  H15 ZIN AC000      -3.947   9.765   4.456  0.00  0.00     0.166 HD
ATOM     17  C12 ZIN AC000      -3.197   7.821   2.147  0.00  0.00     0.108 A 
ENDBRANCH  11  12
ENDBRANCH   1  11
BRANCH   1  18
ATOM     18  C17 ZIN AC000       0.464   8.779   2.772  0.00  0.00    -0.021 A 
ATOM     19  C23 ZIN AC000       1.290   9.890   2.780  0.00  0.00     0.043 A 
ATOM     20  C22 ZIN AC000       1.713  10.428   3.981  0.00  0.00     0.048 A 
ATOM     21 Cl24 ZIN AC000       1.783  10.615   1.282  0.00  0.00    -0.084 Cl
ATOM     22  C20 ZIN AC000       1.320   9.850   5.175  0.00  0.00     0.035 A 
ATOM     23  C19 ZIN AC000       0.499   8.736   5.166  0.00  0.00     0.024 A 
ATOM     24 Cl21 ZIN AC000       1.856  10.521   6.684  0.00  0.00    -0.084 Cl
ATOM     25  C18 ZIN AC000       0.072   8.201   3.965  0.00  0.00     0.012 A 
ENDBRANCH   1  18
TORSDOF 6
