REMARK  1 active torsions:
REMARK  status: ('A' for Active; 'I' for Inactive)
REMARK    1  A    between atoms: C14_14  and  N15_15 
ROOT
ATOM      1  C1  ZIN AC000      -0.089   1.525  -0.105  0.00  0.00     0.056 C 
ATOM      2  C2  ZIN AC000      -0.047   0.019  -0.079  0.00  0.00    -0.018 A 
ATOM      3  C3  ZIN AC000      -1.115  -0.764  -0.056  0.00  0.00     0.032 A 
ATOM      4  C4  ZIN AC000      -0.797  -2.176  -0.029  0.00  0.00     0.044 A 
ATOM      5  C5  ZIN AC000       0.562  -2.405  -0.076  0.00  0.00     0.089 A 
ATOM      6  N6  ZIN AC000       1.123  -3.687  -0.133  0.00  0.00    -0.348 N 
ATOM      7  C7  ZIN AC000       0.692  -4.530  -1.176  0.00  0.00     0.062 A 
ATOM      8  C8  ZIN AC000       1.633  -5.044  -2.050  0.00  0.00     0.032 A 
ATOM      9  C9  ZIN AC000       1.241  -5.854  -3.104  0.00  0.00     0.002 A 
ATOM     10  C10 ZIN AC000      -0.095  -6.150  -3.286  0.00  0.00     0.002 A 
ATOM     11  C11 ZIN AC000      -1.044  -5.652  -2.414  0.00  0.00     0.034 A 
ATOM     12  C12 ZIN AC000      -0.663  -4.843  -1.337  0.00  0.00     0.086 A 
ATOM     13  N13 ZIN AC000      -1.632  -4.431  -0.474  0.00  0.00    -0.228 NA
ATOM     14  C14 ZIN AC000      -1.779  -3.276   0.084  0.00  0.00     0.139 C 
ATOM     15  S23 ZIN AC000       1.424  -0.936  -0.084  0.00  0.00    -0.076 SA
ATOM     16  H28 ZIN AC000       1.780  -3.982   0.517  0.00  0.00     0.166 HD
ENDROOT
BRANCH  14  17
ATOM     17  N15 ZIN AC000      -2.916  -3.055   0.828  0.00  0.00    -0.362 N 
ATOM     18  C22 ZIN AC000      -3.083  -1.819   1.607  0.00  0.00     0.152 C 
ATOM     19  C21 ZIN AC000      -3.484  -2.189   3.035  0.00  0.00     0.254 C 
ATOM     20  N18 ZIN AC000      -4.673  -3.050   3.002  0.00  0.00    -0.072 N 
ATOM     21  C17 ZIN AC000      -4.353  -4.320   2.337  0.00  0.00     0.254 C 
ATOM     22  H19 ZIN AC000      -5.411  -2.584   2.495  0.00  0.00     0.279 HD
ATOM     23  C20 ZIN AC000      -5.118  -3.317   4.376  0.00  0.00     0.269 C 
ATOM     24  C16 ZIN AC000      -3.997  -4.053   0.871  0.00  0.00     0.152 C 
ENDBRANCH  14  17
TORSDOF 1
