REMARK  0 active torsions:
REMARK  status: ('A' for Active; 'I' for Inactive)
ROOT
ATOM      1  O1  ZIN AC000       0.002  -0.004   0.002  0.00  0.00    -0.269 OA
ATOM      2  C2  ZIN AC000      -0.014   1.211   0.009  0.00  0.00     0.278 A 
ATOM      3  C3  ZIN AC000      -1.241   2.108   0.032  0.00  0.00     0.247 A 
ATOM      4  N4  ZIN AC000      -0.666   3.449   0.019  0.00  0.00    -0.203 N 
ATOM      5  C5  ZIN AC000      -1.314   4.761   0.007  0.00  0.00     0.184 C 
ATOM      6  C6  ZIN AC000      -0.393   5.730   0.717  0.00  0.00     0.011 A 
ATOM      7  C7  ZIN AC000      -0.914   6.814   1.393  0.00  0.00     0.066 A 
ATOM      8 Cl8  ZIN AC000      -2.631   7.065   1.441  0.00  0.00    -0.082 Cl
ATOM      9  C9  ZIN AC000      -0.065   7.702   2.035  0.00  0.00     0.056 A 
ATOM     10 Cl10 ZIN AC000      -0.722   9.065   2.887  0.00  0.00    -0.083 Cl
ATOM     11  C11 ZIN AC000       1.304   7.506   1.998  0.00  0.00     0.028 A 
ATOM     12  C12 ZIN AC000       1.831   6.421   1.324  0.00  0.00     0.032 A 
ATOM     13  C13 ZIN AC000       0.984   5.528   0.686  0.00  0.00     0.059 A 
ATOM     14  N14 ZIN AC000       1.511   4.406   0.017  0.00  0.00    -0.189 N 
ATOM     15  C15 ZIN AC000       0.700   3.291   0.010  0.00  0.00     0.706 A 
ATOM     16  N16 ZIN AC000       1.040   2.027   0.003  0.00  0.00    -0.026 NA
ATOM     17  H23 ZIN AC000       2.383   4.417  -0.409  0.00  0.00     0.184 HD
ENDROOT
TORSDOF 0
