REMARK  20 active torsions:
REMARK  status: ('A' for Active; 'I' for Inactive)
REMARK    1  A    between atoms: C2_2  and  C4_4 
REMARK    2  A    between atoms: C4_4  and  N5_5 
REMARK    3  A    between atoms: N5_5  and  C6_6 
REMARK    4  A    between atoms: N5_5  and  C18_18 
REMARK    5  A    between atoms: C6_6  and  C7_7 
REMARK    6  A    between atoms: C7_7  and  N8_8 
REMARK    7  A    between atoms: N8_8  and  C10_10 
REMARK    8  A    between atoms: N8_8  and  C14_14 
REMARK    9  A    between atoms: C10_10  and  C11_11 
REMARK   10  A    between atoms: C14_14  and  C15_15 
REMARK   11  A    between atoms: C18_18  and  C19_19 
REMARK   12  A    between atoms: C19_19  and  N20_20 
REMARK   13  A    between atoms: N20_20  and  C22_22 
REMARK   14  A    between atoms: N20_20  and  C26_26 
REMARK   15  A    between atoms: C22_22  and  C23_23 
REMARK   16  A    between atoms: C26_26  and  C28_27 
REMARK   17  A    between atoms: C26_26  and  C37_36 
REMARK   18  A    between atoms: C28_27  and  O29_28 
REMARK   19  A    between atoms: O29_28  and  C30_29 
REMARK   20  A    between atoms: C30_29  and  C31_30 
ROOT
ATOM      1  C19 ZIN AC000      -0.540  -0.485  -0.544  0.00  0.00     0.267 C 
ENDROOT
BRANCH   1   2
ATOM      2  C18 ZIN AC000      -1.196   0.854  -0.886  0.00  0.00     0.300 C 
BRANCH   2   3
ATOM      3  N5  ZIN AC000      -0.492   1.937  -0.187  0.00  0.00     0.101 N 
BRANCH   3   4
ATOM      4  C4  ZIN AC000       0.749   2.296  -0.888  0.00  0.00     0.385 C 
BRANCH   4   5
ATOM      5  C2  ZIN AC000       0.416   2.819  -2.261  0.00  0.00     0.202 C 
ATOM      6  O1  ZIN AC000      -0.739   2.817  -2.652  0.00  0.00    -0.647 OA
ATOM      7  O3  ZIN AC000       1.301   3.250  -2.981  0.00  0.00    -0.647 OA
ENDBRANCH   4   5
ENDBRANCH   3   4
BRANCH   3   8
ATOM      8  C6  ZIN AC000      -1.361   3.109  -0.021  0.00  0.00     0.300 C 
BRANCH   8   9
ATOM      9  C7  ZIN AC000      -0.690   4.113   0.919  0.00  0.00     0.266 C 
BRANCH   9  10
ATOM     10  N8  ZIN AC000      -1.559   5.285   1.085  0.00  0.00    -0.050 N 
ATOM     11  H9  ZIN AC000      -1.809   5.649   0.178  0.00  0.00     0.281 HD
BRANCH  10  12
ATOM     12  C10 ZIN AC000      -2.776   4.894   1.809  0.00  0.00     0.348 C 
BRANCH  12  13
ATOM     13  C11 ZIN AC000      -2.397   4.276   3.130  0.00  0.00     0.199 C 
ATOM     14  O12 ZIN AC000      -1.229   4.248   3.478  0.00  0.00    -0.647 OA
ATOM     15  O13 ZIN AC000      -3.259   3.803   3.851  0.00  0.00    -0.647 OA
ENDBRANCH  12  13
ENDBRANCH  10  12
BRANCH  10  16
ATOM     16  C14 ZIN AC000      -0.846   6.319   1.847  0.00  0.00     0.348 C 
BRANCH  16  17
ATOM     17  C15 ZIN AC000      -1.672   7.579   1.879  0.00  0.00     0.199 C 
ATOM     18  O16 ZIN AC000      -2.701   7.650   1.230  0.00  0.00    -0.647 OA
ATOM     19  O17 ZIN AC000      -1.310   8.528   2.553  0.00  0.00    -0.647 OA
ENDBRANCH  16  17
ENDBRANCH  10  16
ENDBRANCH   9  10
ENDBRANCH   8   9
ENDBRANCH   3   8
ENDBRANCH   2   3
ENDBRANCH   1   2
BRANCH   1  20
ATOM     20  N20 ZIN AC000      -1.193  -1.559  -1.306  0.00  0.00    -0.044 N 
ATOM     21  H21 ZIN AC000      -2.190  -1.520  -1.155  0.00  0.00     0.281 HD
BRANCH  20  22
ATOM     22  C22 ZIN AC000      -0.907  -1.388  -2.736  0.00  0.00     0.348 C 
BRANCH  22  23
ATOM     23  C23 ZIN AC000      -1.695  -2.399  -3.530  0.00  0.00     0.199 C 
ATOM     24  O24 ZIN AC000      -2.513  -3.109  -2.971  0.00  0.00    -0.647 OA
ATOM     25  O25 ZIN AC000      -1.514  -2.505  -4.731  0.00  0.00    -0.647 OA
ENDBRANCH  22  23
ENDBRANCH  20  22
BRANCH  20  26
ATOM     26  C26 ZIN AC000      -0.680  -2.860  -0.856  0.00  0.00     0.312 C 
BRANCH  26  27
ATOM     27  C28 ZIN AC000       0.849  -2.841  -0.878  0.00  0.00     0.212 C 
BRANCH  27  28
ATOM     28  O29 ZIN AC000       1.329  -1.933   0.116  0.00  0.00    -0.384 OA
BRANCH  28  29
ATOM     29  C30 ZIN AC000       2.753  -1.840   0.179  0.00  0.00     0.206 C 
BRANCH  29  30
ATOM     30  C31 ZIN AC000       3.145  -0.861   1.256  0.00  0.00    -0.035 A 
ATOM     31  C36 ZIN AC000       3.348  -1.302   2.550  0.00  0.00     0.009 A 
ATOM     32  C35 ZIN AC000       3.712  -0.404   3.537  0.00  0.00     0.001 A 
ATOM     33  C34 ZIN AC000       3.864   0.935   3.231  0.00  0.00     0.000 A 
ATOM     34  C33 ZIN AC000       3.656   1.377   1.938  0.00  0.00     0.001 A 
ATOM     35  C32 ZIN AC000       3.297   0.479   0.950  0.00  0.00     0.009 A 
ENDBRANCH  29  30
ENDBRANCH  28  29
ENDBRANCH  27  28
ENDBRANCH  26  27
BRANCH  26  36
ATOM     36  C37 ZIN AC000      -1.159  -3.131   0.547  0.00  0.00     0.207 C 
ATOM     37  O38 ZIN AC000      -1.123  -4.264   0.996  0.00  0.00    -0.646 OA
ATOM     38  O39 ZIN AC000      -1.582  -2.216   1.234  0.00  0.00    -0.646 OA
ENDBRANCH  26  36
ENDBRANCH  20  26
ENDBRANCH   1  20
TORSDOF 20
