REMARK  5 active torsions:
REMARK  status: ('A' for Active; 'I' for Inactive)
REMARK    1  A    between atoms: C2_2  and  C4_3 
REMARK    2  A    between atoms: C2_2  and  N11_10 
REMARK    3  A    between atoms: C4_3  and  C5_4 
REMARK    4  A    between atoms: N11_10  and  C14_13 
REMARK    5  A    between atoms: C14_13  and  C15_14 
ROOT
ATOM      1  N11 ZIN AC000      -1.439  -0.487   0.274  0.00  0.00    -0.067 N 
ATOM      2  H12 ZIN AC000      -1.763  -0.018   1.106  0.00  0.00     0.280 HD
ATOM      3  C13 ZIN AC000      -2.290  -0.113  -0.863  0.00  0.00     0.270 C 
ENDROOT
BRANCH   1   4
ATOM      4  C2  ZIN AC000      -0.051  -0.093  -0.002  0.00  0.00     0.188 C 
ATOM      5  C1  ZIN AC000       0.018   1.423  -0.202  0.00  0.00     0.040 C 
BRANCH   4   6
ATOM      6  C4  ZIN AC000       0.837  -0.493   1.177  0.00  0.00     0.071 C 
BRANCH   6   7
ATOM      7  C5  ZIN AC000       2.269  -0.138   0.871  0.00  0.00    -0.056 A 
ATOM      8  C10 ZIN AC000       2.802   1.049   1.337  0.00  0.00     0.007 A 
ATOM      9  C9  ZIN AC000       4.117   1.373   1.059  0.00  0.00     0.001 A 
ATOM     10  C8  ZIN AC000       4.896   0.513   0.308  0.00  0.00     0.000 A 
ATOM     11  C7  ZIN AC000       4.362  -0.671  -0.163  0.00  0.00     0.001 A 
ATOM     12  C6  ZIN AC000       3.048  -0.997   0.119  0.00  0.00     0.007 A 
ENDBRANCH   6   7
ENDBRANCH   4   6
ENDBRANCH   1   4
BRANCH   1  13
ATOM     13  C14 ZIN AC000      -1.504  -1.941   0.476  0.00  0.00     0.273 C 
BRANCH  13  14
ATOM     14  C15 ZIN AC000      -2.900  -2.329   0.889  0.00  0.00    -0.033 A 
ATOM     15  C20 ZIN AC000      -3.841  -2.653  -0.070  0.00  0.00     0.009 A 
ATOM     16  C19 ZIN AC000      -5.120  -3.013   0.310  0.00  0.00     0.001 A 
ATOM     17  C18 ZIN AC000      -5.462  -3.040   1.649  0.00  0.00     0.000 A 
ATOM     18  C17 ZIN AC000      -4.522  -2.711   2.608  0.00  0.00     0.001 A 
ATOM     19  C16 ZIN AC000      -3.242  -2.355   2.229  0.00  0.00     0.009 A 
ENDBRANCH  13  14
ENDBRANCH   1  13
TORSDOF 5
