REMARK  2 active torsions:
REMARK  status: ('A' for Active; 'I' for Inactive)
REMARK    1  A    between atoms: C14_14  and  O15_15 
REMARK    2  A    between atoms: C21_21  and  O22_22 
ROOT
ATOM      1  O1  <0> d           0.002  -0.004   0.002  0.00  0.00    -0.259 OA
ATOM      2  C2  <0> d          -0.014   1.210   0.009  0.00  0.00     0.295 A 
ATOM      3  O3  <0> d          -1.129   1.968   0.029  0.00  0.00    -0.291 OA
ATOM      4  C4  <0> d          -0.749   3.376   0.033  0.00  0.00     0.159 A 
ATOM      5  C5  <0> d           0.747   3.407   0.010  0.00  0.00     0.003 A 
ATOM      6  C6  <0> d           1.644   4.450   0.002  0.00  0.00     0.012 A 
ATOM      7  C7  <0> d           2.996   4.120  -0.021  0.00  0.00     0.001 A 
ATOM      8  C8  <0> d           3.424   2.807  -0.036  0.00  0.00     0.001 A 
ATOM      9  C9  <0> d           2.532   1.745  -0.028  0.00  0.00     0.018 A 
ATOM     10  C10 <0> d           1.172   2.065   0.002  0.00  0.00     0.049 A 
ATOM     11  C11 <0> d          -1.306   4.049  -1.193  0.00  0.00     0.020 A 
ATOM     12  C12 <0> d          -1.250   3.393  -2.410  0.00  0.00     0.016 A 
ATOM     13  C13 <0> d          -1.756   3.991  -3.548  0.00  0.00     0.037 A 
ATOM     14  C14 <0> d          -2.323   5.255  -3.472  0.00  0.00     0.068 A 
ATOM     15  C16 <0> d          -2.380   5.915  -2.256  0.00  0.00     0.074 A 
ATOM     16  C17 <0> d          -1.870   5.312  -1.113  0.00  0.00     0.088 A 
ATOM     17  O18 <0> d          -1.931   5.976   0.067  0.00  0.00    -0.309 OA
ATOM     18  C19 <0> d          -1.835   5.297   1.235  0.00  0.00     0.088 A 
ATOM     19  C20 <0> d          -2.310   5.885   2.401  0.00  0.00     0.074 A 
ATOM     20  C21 <0> d          -2.221   5.208   3.606  0.00  0.00     0.068 A 
ATOM     21  C23 <0> d          -1.655   3.942   3.648  0.00  0.00     0.037 A 
ATOM     22  C24 <0> d          -1.183   3.359   2.489  0.00  0.00     0.016 A 
ATOM     23  C25 <0> d          -1.271   4.032   1.283  0.00  0.00     0.020 A 
ENDROOT
BRANCH  20  24
ATOM     24  O22 <0> d          -2.686   5.784   4.746  0.00  0.00    -0.361 OA
ATOM     25  H35 <0> d          -3.615   5.591   4.933  0.00  0.00     0.217 HD
ENDBRANCH  20  24
BRANCH  14  26
ATOM     26  O15 <0> d          -2.823   5.844  -4.590  0.00  0.00    -0.361 OA
ATOM     27  H32 <0> d          -3.756   5.651  -4.753  0.00  0.00     0.217 HD
ENDBRANCH  14  26
TORSDOF 2
