REMARK  6 active torsions:
REMARK  status: ('A' for Active; 'I' for Inactive)
REMARK    1  A    between atoms: C2_2  and  C4_4 
REMARK    2  A    between atoms: C4_4  and  O6_5 
REMARK    3  A    between atoms: C4_4  and  C7_6 
REMARK    4  A    between atoms: C7_6  and  O9_7 
REMARK    5  A    between atoms: C7_6  and  C10_8 
REMARK    6  A    between atoms: C10_8  and  O11_9 
ROOT
ATOM      1  C4  <0> d          -1.330   1.951   0.019  0.00  0.00     0.249 C 
ENDROOT
BRANCH   1   2
ATOM      2  C2  <0> d          -0.015   1.215   0.009  0.00  0.00     0.205 C 
ATOM      3  O1  <0> d           0.002  -0.004   0.002  0.00  0.00    -0.646 OA
ATOM      4  O3  <0> d           1.033   1.839   0.002  0.00  0.00    -0.646 OA
ENDBRANCH   1   2
BRANCH   1   5
ATOM      5  O6  <0> d          -2.400   1.011   0.136  0.00  0.00    -0.382 OA
ATOM      6  H12 <0> d          -2.439   0.367  -0.584  0.00  0.00     0.210 HD
ENDBRANCH   1   5
BRANCH   1   7
ATOM      7  C7  <0> d          -1.483   2.739  -1.283  0.00  0.00     0.180 C 
BRANCH   7   8
ATOM      8  O9  <0> d          -1.334   1.854  -2.396  0.00  0.00    -0.390 OA
ATOM      9  H13 <0> d          -1.982   1.137  -2.418  0.00  0.00     0.210 HD
ENDBRANCH   7   8
BRANCH   7  10
ATOM     10  C10 <0> d          -2.870   3.385  -1.328  0.00  0.00     0.199 C 
BRANCH  10  11
ATOM     11  O11 <0> d          -2.971   4.215  -2.487  0.00  0.00    -0.398 OA
ATOM     12  H16 <0> d          -3.826   4.657  -2.580  0.00  0.00     0.209 HD
ENDBRANCH  10  11
ENDBRANCH   7  10
ENDBRANCH   1   7
TORSDOF 6
