REMARK  7 active torsions:
REMARK  status: ('A' for Active; 'I' for Inactive)
REMARK    1  A    between atoms: C2_2  and  N4_3 
REMARK    2  A    between atoms: C2_2  and  C21_20 
REMARK    3  A    between atoms: N4_3  and  C5_4 
REMARK    4  A    between atoms: C5_4  and  C6_5 
REMARK    5  A    between atoms: C9_8  and  O10_9 
REMARK    6  A    between atoms: O10_9  and  C11_10 
REMARK    7  A    between atoms: C11_10  and  C12_11 
REMARK       I    between atoms: C21_20  and  N22_21 
ROOT
ATOM      1  C6  ZIN AC000      -3.336  -1.100  -1.298  0.00  0.00    -0.030 A 
ATOM      2  C7  ZIN AC000      -3.570  -2.460  -1.384  0.00  0.00     0.011 A 
ATOM      3  C8  ZIN AC000      -4.863  -2.944  -1.337  0.00  0.00     0.037 A 
ATOM      4  C9  ZIN AC000      -5.928  -2.064  -1.205  0.00  0.00     0.069 A 
ATOM      5  C19 ZIN AC000      -5.690  -0.700  -1.119  0.00  0.00     0.037 A 
ATOM      6  C20 ZIN AC000      -4.395  -0.221  -1.161  0.00  0.00     0.011 A 
ENDROOT
BRANCH   1   7
ATOM      7  C5  ZIN AC000      -1.924  -0.575  -1.349  0.00  0.00     0.309 C 
BRANCH   7   8
ATOM      8  N4  ZIN AC000      -1.376  -0.512   0.012  0.00  0.00     0.101 N 
ATOM      9  H27 ZIN AC000      -1.426  -1.413   0.464  0.00  0.00     0.317 HD
BRANCH   8  10
ATOM     10  C2  ZIN AC000       0.002  -0.004   0.002  0.00  0.00     0.307 C 
ATOM     11  C1  ZIN AC000      -0.019   1.526   0.010  0.00  0.00     0.053 C 
BRANCH  10  12
ATOM     12  C21 ZIN AC000       0.731  -0.503   1.223  0.00  0.00     0.248 C 
ATOM     13  N22 ZIN AC000       2.019  -0.161   1.426  0.00  0.00    -0.368 N 
ATOM     14  H40 ZIN AC000       2.476   0.406   0.786  0.00  0.00     0.159 HD
ATOM     15  H41 ZIN AC000       2.488  -0.483   2.212  0.00  0.00     0.159 HD
ATOM     16  O23 ZIN AC000       0.159  -1.213   2.023  0.00  0.00    -0.271 OA
ENDBRANCH  10  12
ENDBRANCH   8  10
ENDBRANCH   7   8
ENDBRANCH   1   7
BRANCH   4  17
ATOM     17  O10 ZIN AC000      -7.201  -2.537  -1.159  0.00  0.00    -0.347 OA
BRANCH  17  18
ATOM     18  C11 ZIN AC000      -8.247  -1.573  -1.021  0.00  0.00     0.214 C 
BRANCH  18  19
ATOM     19  C12 ZIN AC000      -9.578  -2.279  -0.988  0.00  0.00    -0.031 A 
ATOM     20  C18 ZIN AC000     -10.113  -2.689   0.219  0.00  0.00     0.051 A 
ATOM     21  C16 ZIN AC000     -11.338  -3.332   0.249  0.00  0.00     0.117 A 
ATOM     22  C15 ZIN AC000     -12.023  -3.572  -0.931  0.00  0.00     0.042 A 
ATOM     23  F17 ZIN AC000     -11.864  -3.730   1.428  0.00  0.00    -0.206 F 
ATOM     24  C14 ZIN AC000     -11.483  -3.166  -2.136  0.00  0.00     0.004 A 
ATOM     25  C13 ZIN AC000     -10.262  -2.519  -2.165  0.00  0.00     0.009 A 
ENDBRANCH  18  19
ENDBRANCH  17  18
ENDBRANCH   4  17
TORSDOF 7
