REMARK  6 active torsions:
REMARK  status: ('A' for Active; 'I' for Inactive)
REMARK    1  A    between atoms: C3_3  and  O4_4 
REMARK    2  A    between atoms: O4_4  and  C5_5 
REMARK    3  A    between atoms: C5_5  and  C6_6 
REMARK    4  A    between atoms: C13_13  and  C14_14 
REMARK    5  A    between atoms: C14_14  and  S15_15 
REMARK    6  A    between atoms: S15_15  and  C17_17 
ROOT
ATOM      1  C1  ZIN AC000      -0.018   1.503   0.010  0.00  0.00     0.053 C 
ATOM      2  C2  ZIN AC000       0.002  -0.004   0.002  0.00  0.00    -0.003 A 
ATOM      3  C3  ZIN AC000       0.006  -0.703  -1.202  0.00  0.00     0.078 A 
ATOM      4  C10 ZIN AC000       0.025  -2.095  -1.158  0.00  0.00     0.056 A 
ATOM      5  C11 ZIN AC000       0.039  -2.727   0.069  0.00  0.00     0.119 A 
ATOM      6  N12 ZIN AC000       0.035  -2.029   1.189  0.00  0.00    -0.264 NA
ATOM      7  C13 ZIN AC000       0.023  -0.710   1.188  0.00  0.00     0.054 A 
ENDROOT
BRANCH   7   8
ATOM      8  C14 ZIN AC000       0.018   0.035   2.497  0.00  0.00     0.177 C 
BRANCH   8   9
ATOM      9  S15 ZIN AC000       1.726   0.350   3.021  0.00  0.00     0.091 S 
ATOM     10  O16 ZIN AC000       2.330  -0.871   3.425  0.00  0.00    -0.249 OA
BRANCH   9  11
ATOM     11  C17 ZIN AC000       1.522   1.214   4.543  0.00  0.00     0.198 A 
ATOM     12  N25 ZIN AC000       1.441   0.627   5.767  0.00  0.00    -0.331 N 
ATOM     13  C24 ZIN AC000       1.288   1.636   6.697  0.00  0.00     0.063 A 
ATOM     14  H39 ZIN AC000       1.484  -0.324   5.953  0.00  0.00     0.168 HD
ATOM     15  C19 ZIN AC000       1.274   2.837   5.967  0.00  0.00     0.086 A 
ATOM     16  C23 ZIN AC000       1.155   1.666   8.078  0.00  0.00     0.032 A 
ATOM     17  N18 ZIN AC000       1.421   2.506   4.658  0.00  0.00    -0.221 NA
ATOM     18  C20 ZIN AC000       1.125   4.050   6.643  0.00  0.00     0.034 A 
ATOM     19  C21 ZIN AC000       0.995   4.060   8.003  0.00  0.00     0.002 A 
ATOM     20  C22 ZIN AC000       1.009   2.875   8.724  0.00  0.00     0.002 A 
ENDBRANCH   9  11
ENDBRANCH   8   9
ENDBRANCH   7   8
BRANCH   3  21
ATOM     21  O4  ZIN AC000      -0.008  -0.045  -2.389  0.00  0.00    -0.342 OA
BRANCH  21  22
ATOM     22  C5  ZIN AC000      -0.003  -0.844  -3.574  0.00  0.00     0.293 C 
BRANCH  22  23
ATOM     23  C6  ZIN AC000      -0.020   0.067  -4.803  0.00  0.00     0.408 C 
ATOM     24  F7  ZIN AC000       1.111   0.890  -4.790  0.00  0.00    -0.169 F 
ATOM     25  F8  ZIN AC000      -0.015  -0.715  -5.963  0.00  0.00    -0.169 F 
ATOM     26  F9  ZIN AC000      -1.173   0.859  -4.780  0.00  0.00    -0.169 F 
ENDBRANCH  22  23
ENDBRANCH  21  22
ENDBRANCH   3  21
TORSDOF 6
