REMARK  4 active torsions:
REMARK  status: ('A' for Active; 'I' for Inactive)
REMARK    1  A    between atoms: C2_2  and  C4_4 
REMARK    2  A    between atoms: C4_4  and  C5_5 
REMARK    3  A    between atoms: C5_5  and  C7_6 
REMARK    4  A    between atoms: C5_5  and  C13_12 
ROOT
ATOM      1  C13 ZIN AC000      -2.181  -3.196  -0.108  0.00  0.00     0.064 A 
ATOM      2  C14 ZIN AC000      -3.449  -2.697   0.011  0.00  0.00     0.133 A 
ATOM      3  O15 ZIN AC000      -3.661  -1.378   0.225  0.00  0.00    -0.190 OA
ATOM      4  C16 ZIN AC000      -4.575  -3.637  -0.102  0.00  0.00     0.035 A 
ATOM      5  C17 ZIN AC000      -5.895  -3.196   0.009  0.00  0.00     0.017 A 
ATOM      6  C18 ZIN AC000      -6.927  -4.102  -0.102  0.00  0.00     0.001 A 
ATOM      7  C19 ZIN AC000      -6.659  -5.445  -0.321  0.00  0.00     0.003 A 
ATOM      8  C20 ZIN AC000      -5.359  -5.894  -0.433  0.00  0.00     0.038 A 
ATOM      9  C21 ZIN AC000      -4.304  -4.997  -0.325  0.00  0.00     0.092 A 
ATOM     10  O22 ZIN AC000      -3.026  -5.419  -0.432  0.00  0.00    -0.274 OA
ATOM     11  C23 ZIN AC000      -1.992  -4.567  -0.336  0.00  0.00     0.298 A 
ATOM     12  O24 ZIN AC000      -0.857  -4.999  -0.440  0.00  0.00    -0.259 OA
ENDROOT
BRANCH   1  13
ATOM     13  C5  ZIN AC000      -0.993  -2.276  -0.001  0.00  0.00     0.067 C 
BRANCH  13  14
ATOM     14  C4  ZIN AC000      -1.448  -0.829  -0.205  0.00  0.00     0.092 C 
BRANCH  14  15
ATOM     15  C2  ZIN AC000      -0.241   0.070  -0.290  0.00  0.00     0.124 C 
ATOM     16  C1  ZIN AC000      -0.418   1.553  -0.491  0.00  0.00     0.091 C 
ATOM     17  O3  ZIN AC000       0.869  -0.399  -0.197  0.00  0.00    -0.298 OA
ENDBRANCH  14  15
ENDBRANCH  13  14
BRANCH  13  18
ATOM     18  C7  ZIN AC000      -0.369  -2.418   1.364  0.00  0.00    -0.049 A 
ATOM     19  C12 ZIN AC000       0.922  -2.898   1.486  0.00  0.00     0.008 A 
ATOM     20  C11 ZIN AC000       1.496  -3.025   2.738  0.00  0.00     0.001 A 
ATOM     21  C10 ZIN AC000       0.776  -2.681   3.866  0.00  0.00     0.000 A 
ATOM     22  C9  ZIN AC000      -0.516  -2.206   3.744  0.00  0.00     0.001 A 
ATOM     23  C8  ZIN AC000      -1.089  -2.075   2.492  0.00  0.00     0.008 A 
ENDBRANCH  13  18
ENDBRANCH   1  13
TORSDOF 4
