REMARK  5 active torsions:
REMARK  status: ('A' for Active; 'I' for Inactive)
REMARK    1  A    between atoms: N16_12  and  C17_13 
REMARK    2  A    between atoms: C17_13  and  C18_14 
REMARK    3  A    between atoms: C24_19  and  C26_20 
REMARK    4  A    between atoms: C26_20  and  N27_21 
REMARK    5  A    between atoms: N30_24  and  C31_25 
ROOT
ATOM      1  C18 RES d   1       3.103   1.225   1.990  0.00  0.00     0.010 C 
ATOM      2  C20 RES d   1       3.291   2.384   2.971  0.00  0.00     0.007 C 
ATOM      3  C21 RES d   1       3.852   1.850   4.290  0.00  0.00     0.000 C 
ATOM      4  C22 RES d   1       5.201   1.175   4.034  0.00  0.00     0.000 C 
ATOM      5  C23 RES d   1       5.014   0.016   3.053  0.00  0.00     0.007 C 
ATOM      6  C24 RES d   1       4.452   0.550   1.734  0.00  0.00     0.019 C 
ENDROOT
BRANCH   6   7
ATOM      7  C26 RES d   1       4.265  -0.609   0.753  0.00  0.00     0.277 C 
BRANCH   7   8
ATOM      8  N27 RES d   1       5.564  -1.241   0.489  0.00  0.00     0.092 N 
ATOM      9  C41 RES d   1       5.437  -2.304  -0.517  0.00  0.00     0.292 C 
ATOM     10  C40 RES d   1       6.767  -3.056  -0.632  0.00  0.00     0.154 C 
ATOM     11  N30 RES d   1       7.836  -2.079  -0.891  0.00  0.00    -0.361 N 
ATOM     12  C29 RES d   1       7.940  -0.911  -0.004  0.00  0.00     0.154 C 
ATOM     13  C28 RES d   1       6.564  -0.243   0.085  0.00  0.00     0.292 C 
BRANCH  11  14
ATOM     14  C31 RES d   1       8.727  -2.257  -1.951  0.00  0.00     0.145 A 
ATOM     15  C39 RES d   1       9.976  -2.980  -1.771  0.00  0.00     0.029 A 
ATOM     16  C34 RES d   1      10.714  -3.041  -2.968  0.00  0.00     0.037 A 
ATOM     17  C38 RES d   1      10.515  -3.610  -0.630  0.00  0.00     0.017 A 
ATOM     18  S33 RES d   1       9.751  -2.172  -4.165  0.00  0.00     0.014 SA
ATOM     19  C35 RES d   1      11.939  -3.692  -3.018  0.00  0.00     0.021 A 
ATOM     20  N32 RES d   1       8.474  -1.780  -3.124  0.00  0.00    -0.192 NA
ATOM     21  C36 RES d   1      12.439  -4.291  -1.884  0.00  0.00     0.001 A 
ATOM     22  C37 RES d   1      11.718  -4.243  -0.697  0.00  0.00     0.001 A 
ENDBRANCH  11  14
ENDBRANCH   7   8
ENDBRANCH   6   7
BRANCH   1  23
ATOM     23  C17 RES d   1       2.542   1.760   0.671  0.00  0.00     0.140 C 
BRANCH  23  24
ATOM     24  N16 RES d   1       1.199   2.299   0.894  0.00  0.00    -0.287 N 
ATOM     25  C2  RES d   1       0.098   1.553   0.746  0.00  0.00     0.231 A 
ATOM     26  O1  RES d   1       0.082   0.382   0.434  0.00  0.00    -0.272 OA
ATOM     27  C3  RES d   1      -1.123   2.396   1.036  0.00  0.00     0.096 A 
ATOM     28  C12 RES d   1      -0.523   3.789   1.380  0.00  0.00     0.096 A 
ATOM     29  C5  RES d   1      -1.904   2.606  -0.296  0.00  0.00    -0.000 C 
ATOM     30  C9  RES d   1      -1.033   4.712   0.208  0.00  0.00    -0.000 C 
ATOM     31  C14 RES d   1       0.971   3.614   1.236  0.00  0.00     0.231 A 
ATOM     32  C8  RES d   1      -2.568   4.854   0.442  0.00  0.00     0.006 C 
ATOM     33  C11 RES d   1      -1.002   3.681  -0.998  0.00  0.00     0.011 C 
ATOM     34  C7  RES d   1      -3.145   3.459   0.107  0.00  0.00     0.006 C 
ATOM     35  O15 RES d   1       1.798   4.482   1.415  0.00  0.00    -0.272 OA
ENDBRANCH  23  24
ENDBRANCH   1  23
TORSDOF 5
