REMARK  6 active torsions:
REMARK  status: ('A' for Active; 'I' for Inactive)
REMARK    1  A    between atoms: C5_5  and  C6_6 
REMARK    2  A    between atoms: C6_6  and  C14_14 
REMARK    3  A    between atoms: C7_7  and  C8_8 
REMARK    4  A    between atoms: C8_8  and  N9_9 
REMARK    5  A    between atoms: C18_18  and  C19_19 
REMARK    6  A    between atoms: C20_20  and  C21_21 
ROOT
ATOM      1  C6  <0> d          -1.950  -3.762   2.362  0.00  0.00     0.001 C 
ATOM      2  C7  <0> d          -1.342  -4.300   3.425  0.00  0.00     0.018 C 
ENDROOT
BRANCH   1   3
ATOM      3  C5  <0> d          -1.942  -2.292   2.168  0.00  0.00    -0.024 A 
ATOM      4  C4  <0> d          -1.280  -1.733   1.077  0.00  0.00     0.013 A 
ATOM      5  C3  <0> d          -1.275  -0.364   0.902  0.00  0.00     0.007 A 
ATOM      6  C2  <0> d          -1.927   0.453   1.808  0.00  0.00    -0.062 A 
ATOM      7  C1  <0> d          -1.919   1.948   1.611  0.00  0.00     0.048 C 
ATOM      8  C26 <0> d          -2.582  -0.095   2.896  0.00  0.00     0.007 A 
ATOM      9  C25 <0> d          -2.598  -1.463   3.078  0.00  0.00     0.013 A 
ENDBRANCH   1   3
BRANCH   1  10
ATOM     10  C14 <0> d          -2.632  -4.636   1.377  0.00  0.00     0.068 A 
ATOM     11  N24 <0> d          -3.231  -4.096   0.327  0.00  0.00    -0.248 NA
ATOM     12  C18 <0> d          -3.848  -4.844  -0.581  0.00  0.00     0.057 A 
ATOM     13  C17 <0> d          -3.892  -6.234  -0.447  0.00  0.00     0.031 A 
ATOM     14  C16 <0> d          -3.278  -6.829   0.645  0.00  0.00     0.005 A 
ATOM     15  C15 <0> d          -2.640  -6.019   1.569  0.00  0.00     0.032 A 
BRANCH  12  16
ATOM     16  C19 <0> d          -4.497  -4.202  -1.737  0.00  0.00     0.038 C 
ATOM     17  C20 <0> d          -4.352  -2.876  -1.942  0.00  0.00     0.086 C 
BRANCH  17  18
ATOM     18  C21 <0> d          -3.189  -2.176  -1.399  0.00  0.00     0.198 C 
ATOM     19  O22 <0> d          -2.168  -2.798  -1.134  0.00  0.00    -0.645 OA
ATOM     20  O23 <0> d          -3.237  -0.967  -1.209  0.00  0.00    -0.645 OA
ENDBRANCH  17  18
ENDBRANCH  12  16
ENDBRANCH   1  10
BRANCH   2  21
ATOM     21  C8  <0> d          -0.649  -3.413   4.427  0.00  0.00     0.300 C 
BRANCH  21  22
ATOM     22  N9  <0> d          -1.182  -3.680   5.769  0.00  0.00     0.091 N 
ATOM     23  C13 <0> d          -0.705  -2.671   6.740  0.00  0.00     0.273 C 
ATOM     24  C12 <0> d          -0.525  -3.392   8.089  0.00  0.00     0.032 C 
ATOM     25  C11 <0> d          -0.898  -4.866   7.812  0.00  0.00     0.032 C 
ATOM     26  C10 <0> d          -0.705  -4.991   6.280  0.00  0.00     0.273 C 
ENDBRANCH  21  22
ENDBRANCH   2  21
TORSDOF 6
