REMARK  3 active torsions:
REMARK  status: ('A' for Active; 'I' for Inactive)
REMARK    1  A    between atoms: C2_2  and  O3_3 
REMARK       I    between atoms: C2_2  and  N13_12 
REMARK    2  A    between atoms: O3_3  and  C4_4 
REMARK    3  A    between atoms: C22_21  and  C24_22 
ROOT
ATOM      1  O1  ZIN AC000      -0.211  -0.377  -0.075  0.00  0.00    -0.238 OA
ATOM      2  C2  ZIN AC000      -0.035   0.822   0.015  0.00  0.00     0.364 C 
ATOM      3  N13 ZIN AC000      -1.093   1.655   0.069  0.00  0.00    -0.315 N 
ATOM      4  C14 ZIN AC000      -0.913   3.113   0.172  0.00  0.00     0.134 C 
ATOM      5  C15 ZIN AC000      -1.477   3.747  -1.099  0.00  0.00     0.059 C 
ATOM      6  C16 ZIN AC000      -2.840   3.190  -1.417  0.00  0.00    -0.048 A 
ATOM      7  C17 ZIN AC000      -3.660   3.933  -2.257  0.00  0.00     0.008 A 
ATOM      8  C18 ZIN AC000      -4.916   3.475  -2.596  0.00  0.00     0.001 A 
ATOM      9  C19 ZIN AC000      -5.365   2.267  -2.098  0.00  0.00     0.001 A 
ATOM     10  C20 ZIN AC000      -4.554   1.528  -1.261  0.00  0.00     0.010 A 
ATOM     11  C21 ZIN AC000      -3.292   1.990  -0.914  0.00  0.00    -0.024 A 
ATOM     12  C22 ZIN AC000      -2.468   1.148   0.020  0.00  0.00     0.156 C 
ENDROOT
BRANCH   2  13
ATOM     13  O3  ZIN AC000       1.216   1.317   0.056  0.00  0.00    -0.296 OA
BRANCH  13  14
ATOM     14  C4  ZIN AC000       2.306   0.361  -0.012  0.00  0.00     0.166 C 
ATOM     15  C10 ZIN AC000       3.519   0.908   0.751  0.00  0.00     0.020 C 
ATOM     16  C9  ZIN AC000       3.959   2.222   0.087  0.00  0.00     0.037 C 
ATOM     17  C11 ZIN AC000       4.665  -0.105   0.640  0.00  0.00     0.037 C 
ATOM     18  C8  ZIN AC000       4.308   1.945  -1.378  0.00  0.00     0.273 C 
ATOM     19  N7  ZIN AC000       4.106   0.518  -1.665  0.00  0.00     0.090 N 
ATOM     20  C6  ZIN AC000       2.700   0.136  -1.475  0.00  0.00     0.305 C 
ATOM     21  C12 ZIN AC000       4.996  -0.315  -0.844  0.00  0.00     0.273 C 
ENDBRANCH  13  14
ENDBRANCH   2  13
BRANCH  12  22
ATOM     22  C24 ZIN AC000      -3.065   1.202   1.403  0.00  0.00    -0.031 A 
ATOM     23  C29 ZIN AC000      -3.402   0.032   2.056  0.00  0.00     0.009 A 
ATOM     24  C28 ZIN AC000      -3.945   0.081   3.326  0.00  0.00     0.001 A 
ATOM     25  C27 ZIN AC000      -4.160   1.302   3.939  0.00  0.00     0.000 A 
ATOM     26  C26 ZIN AC000      -3.827   2.472   3.284  0.00  0.00     0.001 A 
ATOM     27  C25 ZIN AC000      -3.280   2.422   2.015  0.00  0.00     0.009 A 
ENDBRANCH  12  22
TORSDOF 3
