REMARK  7 active torsions:
REMARK  status: ('A' for Active; 'I' for Inactive)
REMARK    1  A    between atoms: C2_2  and  C4_4 
REMARK    2  A    between atoms: C4_4  and  O5_5 
REMARK    3  A    between atoms: C8_8  and  O9_9 
REMARK    4  A    between atoms: C25_25  and  O27_26 
REMARK    5  A    between atoms: O27_26  and  C28_27 
REMARK    6  A    between atoms: C31_29  and  N33_30 
REMARK    7  A    between atoms: C37_34  and  O39_35 
ROOT
ATOM      1  C4  RES d   1      -0.680  -0.670   0.437  0.00  0.00     0.124 C 
ATOM      2  C6  RES d   1      -1.169  -1.065   1.828  0.00  0.00     0.088 C 
ATOM      3  C7  RES d   1      -0.430  -2.279   2.328  0.00  0.00    -0.009 A 
ATOM      4  C8  RES d   1      -0.478  -2.541   3.705  0.00  0.00     0.088 A 
ATOM      5  C10 RES d   1       0.176  -3.649   4.236  0.00  0.00     0.066 A 
ATOM      6  C11 RES d   1       0.889  -4.511   3.376  0.00  0.00     0.069 A 
ATOM      7  C12 RES d   1       1.578  -5.690   3.932  0.00  0.00     0.197 C 
ATOM      8  O13 RES d   1       2.393  -6.298   3.264  0.00  0.00    -0.286 OA
ATOM      9  C14 RES d   1       1.267  -6.125   5.311  0.00  0.00     0.029 A 
ATOM     10  C15 RES d   1       1.667  -7.376   5.767  0.00  0.00     0.016 A 
ATOM     11  C16 RES d   1       1.367  -7.765   7.061  0.00  0.00     0.001 A 
ATOM     12  C17 RES d   1       0.670  -6.919   7.904  0.00  0.00     0.001 A 
ATOM     13  C18 RES d   1       0.264  -5.670   7.466  0.00  0.00     0.016 A 
ATOM     14  C19 RES d   1       0.558  -5.263   6.169  0.00  0.00     0.029 A 
ATOM     15  C20 RES d   1       0.130  -3.933   5.682  0.00  0.00     0.197 C 
ATOM     16  O21 RES d   1      -0.255  -3.086   6.464  0.00  0.00    -0.286 OA
ATOM     17  C22 RES d   1       0.930  -4.236   2.012  0.00  0.00     0.132 A 
ATOM     18  O23 RES d   1       1.615  -5.059   1.179  0.00  0.00    -0.190 OA
ATOM     19  C24 RES d   1       0.268  -3.114   1.493  0.00  0.00     0.018 A 
ATOM     20  C25 RES d   1       0.370  -2.877   0.008  0.00  0.00     0.164 C 
ATOM     21  C44 RES d   1      -0.719  -1.914  -0.459  0.00  0.00     0.083 C 
ENDROOT
BRANCH  20  22
ATOM     22  O27 RES d   1       0.224  -4.122  -0.679  0.00  0.00    -0.351 OA
BRANCH  22  23
ATOM     23  C28 RES d   1       1.030  -4.235  -1.853  0.00  0.00     0.263 C 
ATOM     24  O43 RES d   1       0.485  -3.411  -2.886  0.00  0.00    -0.354 OA
ATOM     25  C40 RES d   1      -0.861  -3.733  -3.241  0.00  0.00     0.151 C 
ATOM     26  C37 RES d   1      -0.919  -5.171  -3.765  0.00  0.00     0.177 C 
ATOM     27  C42 RES d   1      -1.346  -2.773  -4.329  0.00  0.00     0.042 C 
ATOM     28  C31 RES d   1      -0.377  -6.119  -2.692  0.00  0.00     0.219 C 
ATOM     29  C30 RES d   1       1.047  -5.693  -2.321  0.00  0.00     0.096 C 
BRANCH  26  30
ATOM     30  O39 RES d   1      -0.124  -5.282  -4.947  0.00  0.00    -0.391 OA
ATOM     31  H58 RES d   1      -0.412  -4.708  -5.670  0.00  0.00     0.210 HD
ENDBRANCH  26  30
BRANCH  28  32
ATOM     32  N33 RES d   1      -0.359  -7.493  -3.211  0.00  0.00    -0.072 N 
ATOM     33  H34 RES d   1       0.005  -8.115  -2.505  0.00  0.00     0.274 HD
ATOM     34  H35 RES d   1      -1.297  -7.773  -3.454  0.00  0.00     0.274 HD
ATOM     35  H36 RES d   1       0.228  -7.535  -4.031  0.00  0.00     0.274 HD
ENDBRANCH  28  32
ENDBRANCH  22  23
ENDBRANCH  20  22
BRANCH   1  36
ATOM     36  C2  RES d   1       0.732  -0.151   0.523  0.00  0.00     0.157 C 
ATOM     37  C1  RES d   1       1.266   0.763  -0.549  0.00  0.00     0.094 C 
ATOM     38  O3  RES d   1       1.436  -0.468   1.452  0.00  0.00    -0.295 OA
ENDBRANCH   1  36
BRANCH   1  39
ATOM     39  O5  RES d   1      -1.532   0.341  -0.105  0.00  0.00    -0.382 OA
ATOM     40  H48 RES d   1      -1.560   1.153   0.418  0.00  0.00     0.211 HD
ENDBRANCH   1  39
BRANCH   4  41
ATOM     41  O9  RES d   1      -1.167  -1.708   4.525  0.00  0.00    -0.359 OA
ATOM     42  H51 RES d   1      -2.094  -1.953   4.645  0.00  0.00     0.217 HD
ENDBRANCH   4  41
TORSDOF 7
