REMARK  15 active torsions:
REMARK  status: ('A' for Active; 'I' for Inactive)
REMARK    1  A    between atoms: C2_2  and  C3_3 
REMARK    2  A    between atoms: C3_3  and  C4_4 
REMARK    3  A    between atoms: C4_4  and  C5_5 
REMARK    4  A    between atoms: C5_5  and  C6_6 
REMARK    5  A    between atoms: C6_6  and  O8_7 
REMARK    6  A    between atoms: C6_6  and  C9_8 
REMARK    7  A    between atoms: C10_9  and  C11_10 
REMARK    8  A    between atoms: C13_11  and  O15_12 
REMARK    9  A    between atoms: C19_16  and  C21_17 
REMARK   10  A    between atoms: C21_17  and  C22_18 
REMARK   11  A    between atoms: C22_18  and  C23_19 
REMARK   12  A    between atoms: C23_19  and  C24_20 
REMARK   13  A    between atoms: C24_20  and  C25_21 
REMARK   14  A    between atoms: C25_21  and  C26_22 
REMARK   15  A    between atoms: C26_22  and  C27_23 
ROOT
ATOM      1  C11 ZIN AC000      -6.119  -6.001  -0.615  0.00  0.00     0.048 C 
ATOM      2  C13 ZIN AC000      -6.941  -5.684  -1.890  0.00  0.00     0.133 C 
ATOM      3  C16 ZIN AC000      -8.040  -6.776  -1.855  0.00  0.00     0.111 C 
ATOM      4  C17 ZIN AC000      -7.327  -8.013  -1.337  0.00  0.00     0.134 C 
ATOM      5  O18 ZIN AC000      -7.660  -9.159  -1.518  0.00  0.00    -0.297 OA
ATOM      6  C19 ZIN AC000      -6.121  -7.542  -0.547  0.00  0.00     0.065 C 
ENDROOT
BRANCH   1   7
ATOM      7  C10 ZIN AC000      -4.712  -5.479  -0.750  0.00  0.00    -0.020 C 
ATOM      8  C9  ZIN AC000      -4.234  -4.645   0.141  0.00  0.00     0.001 C 
BRANCH   8   9
ATOM      9  C6  ZIN AC000      -2.827  -4.123   0.007  0.00  0.00     0.140 C 
BRANCH   9  10
ATOM     10  C5  ZIN AC000      -2.848  -2.593   0.015  0.00  0.00     0.036 C 
BRANCH  10  11
ATOM     11  C4  ZIN AC000      -1.413  -2.063   0.004  0.00  0.00     0.003 C 
BRANCH  11  12
ATOM     12  C3  ZIN AC000      -1.433  -0.534   0.013  0.00  0.00    -0.000 C 
BRANCH  12  13
ATOM     13  C2  ZIN AC000       0.002  -0.004   0.002  0.00  0.00    -0.005 C 
ATOM     14  C1  ZIN AC000      -0.019   1.526   0.010  0.00  0.00     0.005 C 
ENDBRANCH  12  13
ENDBRANCH  11  12
ENDBRANCH  10  11
ENDBRANCH   9  10
BRANCH   9  15
ATOM     15  O8  ZIN AC000      -2.263  -4.585  -1.222  0.00  0.00    -0.392 OA
ATOM     16  H41 ZIN AC000      -2.749  -4.302  -2.009  0.00  0.00     0.210 HD
ENDBRANCH   9  15
ENDBRANCH   8   9
ENDBRANCH   1   7
BRANCH   6  17
ATOM     17  C21 ZIN AC000      -6.234  -8.007   0.906  0.00  0.00     0.013 C 
BRANCH  17  18
ATOM     18  C22 ZIN AC000      -6.137  -9.533   0.962  0.00  0.00     0.001 C 
BRANCH  18  19
ATOM     19  C23 ZIN AC000      -6.250  -9.999   2.416  0.00  0.00     0.000 C 
BRANCH  19  20
ATOM     20  C24 ZIN AC000      -6.153 -11.524   2.471  0.00  0.00     0.001 C 
BRANCH  20  21
ATOM     21  C25 ZIN AC000      -6.265 -11.990   3.925  0.00  0.00     0.010 C 
BRANCH  21  22
ATOM     22  C26 ZIN AC000      -6.169 -13.516   3.981  0.00  0.00     0.113 C 
BRANCH  22  23
ATOM     23  C27 ZIN AC000      -6.280 -13.974   5.412  0.00  0.00     0.172 C 
ATOM     24  O28 ZIN AC000      -6.423 -13.156   6.305  0.00  0.00    -0.648 OA
ATOM     25  O29 ZIN AC000      -6.226 -15.163   5.677  0.00  0.00    -0.648 OA
ENDBRANCH  22  23
ENDBRANCH  21  22
ENDBRANCH  20  21
ENDBRANCH  19  20
ENDBRANCH  18  19
ENDBRANCH  17  18
ENDBRANCH   6  17
BRANCH   2  26
ATOM     26  O15 ZIN AC000      -7.515  -4.378  -1.813  0.00  0.00    -0.394 OA
ATOM     27  H44 ZIN AC000      -8.040  -4.132  -2.587  0.00  0.00     0.210 HD
ENDBRANCH   2  26
TORSDOF 15
