REMARK  13 active torsions:
REMARK  status: ('A' for Active; 'I' for Inactive)
REMARK    1  A    between atoms: C2_2  and  O3_3 
REMARK    2  A    between atoms: O3_3  and  C4_4 
REMARK    3  A    between atoms: C10_10  and  C11_11 
REMARK    4  A    between atoms: C11_11  and  O13_13 
REMARK    5  A    between atoms: O13_13  and  C14_14 
REMARK    6  A    between atoms: C14_14  and  O17_16 
REMARK    7  A    between atoms: O17_16  and  C18_17 
REMARK    8  A    between atoms: C18_17  and  O20_19 
REMARK    9  A    between atoms: O20_19  and  C21_20 
REMARK   10  A    between atoms: N28_27  and  C29_28 
REMARK   11  A    between atoms: C29_28  and  C30_29 
REMARK   12  A    between atoms: C33_32  and  C34_33 
REMARK   13  A    between atoms: C39_38  and  C40_39 
ROOT
ATOM      1  C4  ZIN AC000       1.053  -4.165   1.645  0.00  0.00     0.249 A 
ATOM      2  N5  ZIN AC000       1.527  -5.029   2.504  0.00  0.00    -0.206 NA
ATOM      3  C6  ZIN AC000       1.091  -4.714   3.753  0.00  0.00     0.089 A 
ATOM      4  C7  ZIN AC000       1.288  -5.286   5.011  0.00  0.00     0.034 A 
ATOM      5  C8  ZIN AC000       0.700  -4.727   6.127  0.00  0.00     0.003 A 
ATOM      6  C9  ZIN AC000      -0.085  -3.595   6.018  0.00  0.00     0.020 A 
ATOM      7  C10 ZIN AC000      -0.303  -3.007   4.771  0.00  0.00     0.069 A 
ATOM      8  C27 ZIN AC000       0.290  -3.567   3.631  0.00  0.00     0.083 A 
ATOM      9  N28 ZIN AC000       0.283  -3.242   2.292  0.00  0.00    -0.304 N 
ENDROOT
BRANCH   9  10
ATOM     10  C29 ZIN AC000      -0.421  -2.115   1.676  0.00  0.00     0.171 C 
BRANCH  10  11
ATOM     11  C30 ZIN AC000       0.524  -0.950   1.533  0.00  0.00    -0.040 A 
ATOM     12  C46 ZIN AC000       1.218  -0.767   0.350  0.00  0.00     0.010 A 
ATOM     13  C45 ZIN AC000       2.084   0.298   0.213  0.00  0.00     0.013 A 
ATOM     14  C33 ZIN AC000       2.260   1.191   1.270  0.00  0.00    -0.025 A 
ATOM     15  C32 ZIN AC000       1.559   1.001   2.459  0.00  0.00     0.013 A 
ATOM     16  C31 ZIN AC000       0.691  -0.065   2.583  0.00  0.00     0.010 A 
BRANCH  14  17
ATOM     17  C34 ZIN AC000       3.190   2.337   1.129  0.00  0.00    -0.012 A 
ATOM     18  C39 ZIN AC000       2.696   3.651   1.143  0.00  0.00     0.026 A 
ATOM     19  C38 ZIN AC000       3.579   4.719   1.016  0.00  0.00     0.016 A 
ATOM     20  C37 ZIN AC000       4.931   4.483   0.865  0.00  0.00     0.001 A 
ATOM     21  C36 ZIN AC000       5.417   3.187   0.845  0.00  0.00     0.001 A 
ATOM     22  C35 ZIN AC000       4.555   2.116   0.976  0.00  0.00     0.013 A 
BRANCH  18  23
ATOM     23  C40 ZIN AC000       1.242   3.900   1.299  0.00  0.00     0.207 A 
ATOM     24  N44 ZIN AC000       0.652   5.080   1.464  0.00  0.00    -0.106 NA
ATOM     25  N43 ZIN AC000      -0.616   4.870   1.560  0.00  0.00    -0.021 NA
ATOM     26  N42 ZIN AC000      -0.843   3.607   1.461  0.00  0.00    -0.021 NA
ATOM     27  N41 ZIN AC000       0.276   2.988   1.295  0.00  0.00    -0.106 NA
ENDBRANCH  18  23
ENDBRANCH  14  17
ENDBRANCH  10  11
ENDBRANCH   9  10
BRANCH   1  28
ATOM     28  O3  ZIN AC000       1.290  -4.183   0.314  0.00  0.00    -0.321 OA
BRANCH  28  29
ATOM     29  C2  ZIN AC000       2.125  -5.231  -0.182  0.00  0.00     0.174 C 
ATOM     30  C1  ZIN AC000       2.278  -5.088  -1.698  0.00  0.00     0.034 C 
ENDBRANCH  28  29
ENDBRANCH   1  28
BRANCH   7  31
ATOM     31  C11 ZIN AC000      -1.146  -1.804   4.654  0.00  0.00     0.298 C 
ATOM     32  O12 ZIN AC000      -0.777  -0.754   5.142  0.00  0.00    -0.259 OA
BRANCH  31  33
ATOM     33  O13 ZIN AC000      -2.326  -1.868   4.006  0.00  0.00    -0.285 OA
BRANCH  33  34
ATOM     34  C14 ZIN AC000      -3.152  -0.673   4.022  0.00  0.00     0.277 C 
ATOM     35  C16 ZIN AC000      -4.159  -0.735   2.872  0.00  0.00     0.072 C 
BRANCH  34  36
ATOM     36  O17 ZIN AC000      -3.864  -0.594   5.285  0.00  0.00    -0.266 OA
BRANCH  36  37
ATOM     37  C18 ZIN AC000      -3.258   0.068   6.287  0.00  0.00     0.409 C 
ATOM     38  O19 ZIN AC000      -2.222   0.667   6.080  0.00  0.00    -0.229 OA
BRANCH  37  39
ATOM     39  O20 ZIN AC000      -3.800   0.066   7.519  0.00  0.00    -0.293 OA
BRANCH  39  40
ATOM     40  C21 ZIN AC000      -3.157   0.895   8.522  0.00  0.00     0.134 C 
ATOM     41  C26 ZIN AC000      -3.452   0.332   9.914  0.00  0.00     0.032 C 
ATOM     42  C25 ZIN AC000      -2.775   1.206  10.972  0.00  0.00     0.002 C 
ATOM     43  C24 ZIN AC000      -3.315   2.634  10.875  0.00  0.00     0.000 C 
ATOM     44  C23 ZIN AC000      -3.020   3.197   9.484  0.00  0.00     0.002 C 
ATOM     45  C22 ZIN AC000      -3.697   2.324   8.426  0.00  0.00     0.032 C 
ENDBRANCH  39  40
ENDBRANCH  37  39
ENDBRANCH  36  37
ENDBRANCH  34  36
ENDBRANCH  33  34
ENDBRANCH  31  33
ENDBRANCH   7  31
TORSDOF 13
