REMARK  3 active torsions:
REMARK  status: ('A' for Active; 'I' for Inactive)
REMARK    1  A    between atoms: C4_4  and  C5_5 
REMARK    2  A    between atoms: C5_5  and  N6_6 
REMARK    3  A    between atoms: C14_14  and  O15_15 
ROOT
ATOM      1  N6  ZIN AC000      -3.393  -0.632  -0.987  0.00  0.00    -0.063 N 
ATOM      2  H7  ZIN AC000      -3.414  -1.629  -0.837  0.00  0.00     0.280 HD
ATOM      3  C8  ZIN AC000      -2.897  -0.362  -2.338  0.00  0.00     0.237 C 
ATOM      4  C9  ZIN AC000      -2.862   1.151  -2.581  0.00  0.00     0.042 C 
ATOM      5  C10 ZIN AC000      -4.305   1.675  -2.465  0.00  0.00    -0.009 C 
ATOM      6  C11 ZIN AC000      -4.365   3.170  -2.787  0.00  0.00     0.021 C 
ATOM      7  C12 ZIN AC000      -5.151   0.875  -3.428  0.00  0.00    -0.040 A 
ATOM      8  C13 ZIN AC000      -5.252   1.329  -4.733  0.00  0.00     0.045 A 
ATOM      9  C14 ZIN AC000      -6.003   0.627  -5.662  0.00  0.00     0.066 A 
ATOM     10  C16 ZIN AC000      -6.653  -0.536  -5.279  0.00  0.00     0.037 A 
ATOM     11  C17 ZIN AC000      -6.554  -0.981  -3.977  0.00  0.00     0.010 A 
ATOM     12  C18 ZIN AC000      -5.808  -0.272  -3.042  0.00  0.00    -0.049 A 
ATOM     13  C19 ZIN AC000      -5.777  -0.798  -1.632  0.00  0.00     0.072 C 
ATOM     14  C20 ZIN AC000      -4.731  -0.095  -0.785  0.00  0.00     0.197 C 
ATOM     15  C22 ZIN AC000      -4.782   1.411  -1.032  0.00  0.00     0.025 C 
ATOM     16  C24 ZIN AC000      -6.217   1.914  -0.862  0.00  0.00     0.013 C 
ENDROOT
BRANCH   1  17
ATOM     17  C5  ZIN AC000      -2.481  -0.021  -0.011  0.00  0.00     0.263 C 
BRANCH  17  18
ATOM     18  C4  ZIN AC000      -1.125  -0.670  -0.117  0.00  0.00     0.003 C 
ATOM     19  C2  ZIN AC000      -0.572  -1.209   0.942  0.00  0.00    -0.090 C 
ATOM     20  C1  ZIN AC000      -1.342  -1.290   2.235  0.00  0.00     0.042 C 
ATOM     21  C3  ZIN AC000       0.833  -1.748   0.867  0.00  0.00     0.042 C 
ENDBRANCH  17  18
ENDBRANCH   1  17
BRANCH   9  22
ATOM     22  O15 ZIN AC000      -6.102   1.076  -6.941  0.00  0.00    -0.361 OA
ATOM     23  H42 ZIN AC000      -5.417   0.734  -7.532  0.00  0.00     0.217 HD
ENDBRANCH   9  22
TORSDOF 3
