REMARK  15 active torsions:
REMARK  status: ('A' for Active; 'I' for Inactive)
REMARK    1  A    between atoms: C2_2  and  C3_3 
REMARK    2  A    between atoms: C3_3  and  C4_4 
REMARK    3  A    between atoms: C4_4  and  C5_5 
REMARK    4  A    between atoms: C5_5  and  C6_6 
REMARK    5  A    between atoms: C6_6  and  C7_7 
REMARK    6  A    between atoms: C7_7  and  C8_8 
REMARK    7  A    between atoms: C8_8  and  C9_9 
REMARK    8  A    between atoms: C9_9  and  C10_10 
REMARK    9  A    between atoms: C10_10  and  C11_11 
REMARK   10  A    between atoms: C11_11  and  C12_12 
REMARK   11  A    between atoms: C12_12  and  C13_13 
REMARK   12  A    between atoms: C13_13  and  C14_14 
REMARK   13  A    between atoms: C14_14  and  C15_15 
REMARK   14  A    between atoms: C15_15  and  C16_16 
REMARK   15  A    between atoms: C16_16  and  N17_17 
ROOT
ATOM      1  C11 ZIN AC000      -7.092  -8.771   0.023  0.00  0.00     0.000 C 
ENDROOT
BRANCH   1   2
ATOM      2  C10 ZIN AC000      -5.657  -8.242   0.012  0.00  0.00     0.000 C 
BRANCH   2   3
ATOM      3  C9  ZIN AC000      -5.677  -6.712   0.020  0.00  0.00     0.000 C 
BRANCH   3   4
ATOM      4  C8  ZIN AC000      -4.242  -6.182   0.009  0.00  0.00     0.000 C 
BRANCH   4   5
ATOM      5  C7  ZIN AC000      -4.263  -4.652   0.018  0.00  0.00     0.000 C 
BRANCH   5   6
ATOM      6  C6  ZIN AC000      -2.827  -4.123   0.007  0.00  0.00     0.000 C 
BRANCH   6   7
ATOM      7  C5  ZIN AC000      -2.848  -2.593   0.015  0.00  0.00     0.000 C 
BRANCH   7   8
ATOM      8  C4  ZIN AC000      -1.413  -2.063   0.004  0.00  0.00     0.000 C 
BRANCH   8   9
ATOM      9  C3  ZIN AC000      -1.433  -0.534   0.013  0.00  0.00    -0.000 C 
BRANCH   9  10
ATOM     10  C2  ZIN AC000       0.002  -0.004   0.002  0.00  0.00    -0.005 C 
ATOM     11  C1  ZIN AC000      -0.019   1.526   0.010  0.00  0.00     0.005 C 
ENDBRANCH   9  10
ENDBRANCH   8   9
ENDBRANCH   7   8
ENDBRANCH   6   7
ENDBRANCH   5   6
ENDBRANCH   4   5
ENDBRANCH   3   4
ENDBRANCH   2   3
ENDBRANCH   1   2
BRANCH   1  12
ATOM     12  C12 ZIN AC000      -7.071 -10.301   0.014  0.00  0.00     0.000 C 
BRANCH  12  13
ATOM     13  C13 ZIN AC000      -8.507 -10.831   0.025  0.00  0.00     0.000 C 
BRANCH  13  14
ATOM     14  C14 ZIN AC000      -8.486 -12.361   0.017  0.00  0.00     0.002 C 
BRANCH  14  15
ATOM     15  C15 ZIN AC000      -9.921 -12.890   0.028  0.00  0.00     0.020 C 
BRANCH  15  16
ATOM     16  C16 ZIN AC000      -9.900 -14.420   0.019  0.00  0.00     0.128 C 
BRANCH  16  17
ATOM     17  N17 ZIN AC000     -11.275 -14.927   0.029  0.00  0.00    -0.366 N 
ATOM     18  C22 ZIN AC000     -11.888 -15.143  -1.118  0.00  0.00     0.090 A 
ATOM     19  C21 ZIN AC000     -13.183 -15.626  -1.147  0.00  0.00     0.017 A 
ATOM     20  C20 ZIN AC000     -13.839 -15.872   0.049  0.00  0.00     0.003 A 
ATOM     21  C19 ZIN AC000     -13.164 -15.628   1.235  0.00  0.00     0.017 A 
ATOM     22  C18 ZIN AC000     -11.868 -15.150   1.186  0.00  0.00     0.090 A 
ENDBRANCH  16  17
ENDBRANCH  15  16
ENDBRANCH  14  15
ENDBRANCH  13  14
ENDBRANCH  12  13
ENDBRANCH   1  12
TORSDOF 15
