REMARK  8 active torsions:
REMARK  status: ('A' for Active; 'I' for Inactive)
REMARK    1  A    between atoms: N1_1  and  C2_2 
REMARK    2  A    between atoms: N6_6  and  C7_7 
REMARK    3  A    between atoms: C7_7  and  C8_8 
REMARK    4  A    between atoms: C8_8  and  C10_9 
REMARK    5  A    between atoms: C8_8  and  O12_11 
REMARK    6  A    between atoms: C10_9  and  O11_10 
REMARK    7  A    between atoms: O12_11  and  C13_12 
REMARK    8  A    between atoms: C13_12  and  P14_13 
ROOT
ATOM      1  C7  ZIN AC000      -0.308  -3.794   0.082  0.00  0.00     0.167 C 
ENDROOT
BRANCH   1   2
ATOM      2  N6  ZIN AC000      -0.183  -2.350  -0.126  0.00  0.00    -0.306 N 
ATOM      3  C4  ZIN AC000      -1.288  -1.594  -0.254  0.00  0.00     0.350 A 
ATOM      4  N3  ZIN AC000      -1.204  -0.278  -0.445  0.00  0.00    -0.177 NA
ATOM      5  O5  ZIN AC000      -2.386  -2.122  -0.195  0.00  0.00    -0.244 OA
ATOM      6  C2  ZIN AC000      -0.023   0.322  -0.513  0.00  0.00     0.128 A 
ATOM      7  C19 ZIN AC000       1.156  -0.443  -0.388  0.00  0.00     0.067 A 
ATOM      8  C18 ZIN AC000       1.053  -1.778  -0.189  0.00  0.00     0.099 A 
BRANCH   6   9
ATOM      9  N1  ZIN AC000       0.053   1.681  -0.710  0.00  0.00    -0.384 N 
ATOM     10  H20 ZIN AC000       0.918   2.116  -0.764  0.00  0.00     0.157 HD
ATOM     11  H21 ZIN AC000      -0.759   2.204  -0.800  0.00  0.00     0.157 HD
ENDBRANCH   6   9
ENDBRANCH   1   2
BRANCH   1  12
ATOM     12  C8  ZIN AC000      -0.328  -4.505  -1.273  0.00  0.00     0.164 C 
BRANCH  12  13
ATOM     13  C10 ZIN AC000      -0.459  -6.014  -1.056  0.00  0.00     0.197 C 
BRANCH  13  14
ATOM     14  O11 ZIN AC000      -1.615  -6.282  -0.260  0.00  0.00    -0.398 OA
ATOM     15  H26 ZIN AC000      -1.760  -7.221  -0.082  0.00  0.00     0.209 HD
ENDBRANCH  13  14
ENDBRANCH  12  13
BRANCH  12  16
ATOM     16  O12 ZIN AC000      -1.439  -4.036  -2.040  0.00  0.00    -0.369 OA
BRANCH  16  17
ATOM     17  C13 ZIN AC000      -1.246  -4.121  -3.454  0.00  0.00     0.313 C 
BRANCH  17  18
ATOM     18  P14 ZIN AC000      -0.135  -2.781  -3.997  0.00  0.00     0.283 P 
ATOM     19  O15 ZIN AC000      -0.701  -1.404  -3.510  0.00  0.00    -0.638 OA
ATOM     20  O16 ZIN AC000       1.290  -3.006  -3.387  0.00  0.00    -0.638 OA
ATOM     21  O17 ZIN AC000      -0.040  -2.783  -5.560  0.00  0.00    -0.638 OA
ENDBRANCH  17  18
ENDBRANCH  16  17
ENDBRANCH  12  16
ENDBRANCH   1  12
TORSDOF 8
