REMARK  16 active torsions:
REMARK  status: ('A' for Active; 'I' for Inactive)
REMARK    1  A    between atoms: O1_1  and  C2_2 
REMARK    2  A    between atoms: C2_2  and  C3_3 
REMARK    3  A    between atoms: C3_3  and  N4_4 
REMARK    4  A    between atoms: N4_4  and  C5_5 
REMARK    5  A    between atoms: N4_4  and  C8_8 
REMARK    6  A    between atoms: C5_5  and  C6_6 
REMARK    7  A    between atoms: C6_6  and  O7_7 
REMARK    8  A    between atoms: C10_10  and  N11_11 
REMARK    9  A    between atoms: C19_19  and  N20_20 
REMARK   10  A    between atoms: N20_20  and  C21_21 
REMARK   11  A    between atoms: N20_20  and  C24_24 
REMARK   12  A    between atoms: C21_21  and  C22_22 
REMARK   13  A    between atoms: C22_22  and  O23_23 
REMARK   14  A    between atoms: C24_24  and  C25_25 
REMARK   15  A    between atoms: C25_25  and  O26_26 
REMARK   16  A    between atoms: C28_28  and  N29_29 
ROOT
ATOM      1  C8  ZIN AC000      -2.795   1.051  -1.302  0.00  0.00     0.727 A 
ATOM      2  N9  ZIN AC000      -3.400   1.372  -2.442  0.00  0.00    -0.048 NA
ATOM      3  C10 ZIN AC000      -4.074   2.505  -2.572  0.00  0.00     0.156 A 
ATOM      4  C17 ZIN AC000      -4.138   3.378  -1.458  0.00  0.00     0.149 A 
ATOM      5  N18 ZIN AC000      -4.794   4.542  -1.491  0.00  0.00    -0.057 NA
ATOM      6  C19 ZIN AC000      -4.824   5.320  -0.425  0.00  0.00     0.727 A 
ATOM      7  N27 ZIN AC000      -4.219   4.999   0.715  0.00  0.00    -0.048 NA
ATOM      8  C28 ZIN AC000      -3.545   3.866   0.845  0.00  0.00     0.156 A 
ATOM      9  C35 ZIN AC000      -3.480   2.993  -0.270  0.00  0.00     0.149 A 
ATOM     10  N36 ZIN AC000      -2.829   1.827  -0.235  0.00  0.00    -0.057 NA
ENDROOT
BRANCH   1  11
ATOM     11  N4  ZIN AC000      -2.105  -0.148  -1.230  0.00  0.00    -0.210 N 
BRANCH  11  12
ATOM     12  C3  ZIN AC000      -1.433  -0.534   0.013  0.00  0.00     0.167 C 
BRANCH  12  13
ATOM     13  C2  ZIN AC000       0.002  -0.004   0.002  0.00  0.00     0.184 C 
BRANCH  13  14
ATOM     14  O1  ZIN AC000      -0.017   1.425   0.010  0.00  0.00    -0.399 OA
ATOM     15  H37 ZIN AC000       0.861   1.830   0.004  0.00  0.00     0.209 HD
ENDBRANCH  13  14
ENDBRANCH  12  13
ENDBRANCH  11  12
BRANCH  11  16
ATOM     16  C5  ZIN AC000      -2.049  -1.032  -2.398  0.00  0.00     0.167 C 
BRANCH  16  17
ATOM     17  C6  ZIN AC000      -3.230  -2.003  -2.361  0.00  0.00     0.184 C 
BRANCH  17  18
ATOM     18  O7  ZIN AC000      -4.451  -1.273  -2.498  0.00  0.00    -0.399 OA
ATOM     19  H46 ZIN AC000      -5.244  -1.826  -2.483  0.00  0.00     0.209 HD
ENDBRANCH  17  18
ENDBRANCH  16  17
ENDBRANCH  11  16
ENDBRANCH   1  11
BRANCH   3  20
ATOM     20  N11 ZIN AC000      -4.698   2.826  -3.761  0.00  0.00    -0.265 NA
ATOM     21  C16 ZIN AC000      -4.493   1.773  -4.764  0.00  0.00     0.097 C 
ATOM     22  C15 ZIN AC000      -5.071   2.227  -6.106  0.00  0.00     0.015 C 
ATOM     23  C14 ZIN AC000      -6.566   2.516  -5.941  0.00  0.00     0.002 C 
ATOM     24  C13 ZIN AC000      -6.754   3.581  -4.857  0.00  0.00     0.015 C 
ATOM     25  C12 ZIN AC000      -6.127   3.088  -3.551  0.00  0.00     0.097 C 
ENDBRANCH   3  20
BRANCH   8  26
ATOM     26  N29 ZIN AC000      -2.922   3.544   2.034  0.00  0.00    -0.265 NA
ATOM     27  C34 ZIN AC000      -3.127   4.597   3.037  0.00  0.00     0.097 C 
ATOM     28  C33 ZIN AC000      -2.307   4.278   4.289  0.00  0.00     0.015 C 
ATOM     29  C32 ZIN AC000      -2.744   2.921   4.848  0.00  0.00     0.002 C 
ATOM     30  C31 ZIN AC000      -2.565   1.851   3.768  0.00  0.00     0.015 C 
ATOM     31  C30 ZIN AC000      -3.379   2.240   2.531  0.00  0.00     0.097 C 
ENDBRANCH   8  26
BRANCH   6  32
ATOM     32  N20 ZIN AC000      -5.513   6.520  -0.497  0.00  0.00    -0.210 N 
BRANCH  32  33
ATOM     33  C21 ZIN AC000      -6.190   6.902  -1.738  0.00  0.00     0.167 C 
BRANCH  33  34
ATOM     34  C22 ZIN AC000      -7.625   6.373  -1.720  0.00  0.00     0.184 C 
BRANCH  34  35
ATOM     35  O23 ZIN AC000      -8.358   7.018  -0.676  0.00  0.00    -0.399 OA
ATOM     36  H61 ZIN AC000      -9.278   6.730  -0.606  0.00  0.00     0.209 HD
ENDBRANCH  34  35
ENDBRANCH  33  34
ENDBRANCH  32  33
BRANCH  32  37
ATOM     37  C24 ZIN AC000      -5.565   7.406   0.669  0.00  0.00     0.167 C 
BRANCH  37  38
ATOM     38  C25 ZIN AC000      -4.383   8.376   0.624  0.00  0.00     0.184 C 
BRANCH  38  39
ATOM     39  O26 ZIN AC000      -4.515   9.236  -0.510  0.00  0.00    -0.399 OA
ATOM     40  H66 ZIN AC000      -3.799   9.879  -0.601  0.00  0.00     0.209 HD
ENDBRANCH  38  39
ENDBRANCH  37  38
ENDBRANCH  32  37
ENDBRANCH   6  32
TORSDOF 16
