REMARK  4 active torsions:
REMARK  status: ('A' for Active; 'I' for Inactive)
REMARK    1  A    between atoms: C2_2  and  C4_3 
REMARK    2  A    between atoms: C2_2  and  C20_19 
REMARK    3  A    between atoms: C4_3  and  N5_4 
REMARK    4  A    between atoms: C20_19  and  N21_20 
ROOT
ATOM      1  N5  ZIN AC000      -2.404  -0.028  -0.926  0.00  0.00    -0.346 N 
ATOM      2  C6  ZIN AC000      -3.271   1.056  -0.747  0.00  0.00     0.041 A 
ATOM      3  C7  ZIN AC000      -2.717   2.265  -0.337  0.00  0.00     0.030 A 
ATOM      4  C8  ZIN AC000      -3.512   3.380  -0.175  0.00  0.00     0.002 A 
ATOM      5  C9  ZIN AC000      -4.868   3.284  -0.429  0.00  0.00     0.001 A 
ATOM      6  C10 ZIN AC000      -5.418   2.085  -0.821  0.00  0.00     0.009 A 
ATOM      7  C11 ZIN AC000      -4.634   0.940  -0.974  0.00  0.00    -0.031 A 
ATOM      8  C12 ZIN AC000      -5.405  -0.311  -1.331  0.00  0.00     0.045 C 
ATOM      9  C13 ZIN AC000      -4.528  -1.547  -1.417  0.00  0.00     0.045 C 
ATOM     10  C14 ZIN AC000      -3.486  -1.404  -2.496  0.00  0.00    -0.031 A 
ATOM     11  C15 ZIN AC000      -3.610  -1.992  -3.734  0.00  0.00     0.009 A 
ATOM     12  C16 ZIN AC000      -2.585  -1.828  -4.655  0.00  0.00     0.001 A 
ATOM     13  C17 ZIN AC000      -1.461  -1.090  -4.331  0.00  0.00     0.002 A 
ATOM     14  C18 ZIN AC000      -1.349  -0.494  -3.084  0.00  0.00     0.030 A 
ATOM     15  C19 ZIN AC000      -2.380  -0.649  -2.180  0.00  0.00     0.041 A 
ENDROOT
BRANCH   1  16
ATOM     16  C4  ZIN AC000      -1.544  -0.495   0.165  0.00  0.00     0.135 C 
BRANCH  16  17
ATOM     17  C2  ZIN AC000      -0.082  -0.204  -0.179  0.00  0.00     0.026 C 
ATOM     18  C1  ZIN AC000       0.109   1.303  -0.363  0.00  0.00     0.013 C 
BRANCH  17  19
ATOM     19  C20 ZIN AC000       0.817  -0.696   0.957  0.00  0.00     0.239 C 
BRANCH  19  20
ATOM     20  N21 ZIN AC000       2.225  -0.540   0.570  0.00  0.00    -0.078 N 
ATOM     21  H22 ZIN AC000       2.391   0.413   0.282  0.00  0.00     0.278 HD
ATOM     22  C23 ZIN AC000       3.087  -0.862   1.716  0.00  0.00     0.269 C 
ATOM     23  C24 ZIN AC000       2.531  -1.448  -0.543  0.00  0.00     0.269 C 
ENDBRANCH  19  20
ENDBRANCH  17  19
ENDBRANCH  16  17
ENDBRANCH   1  16
TORSDOF 4
