REMARK  6 active torsions:
REMARK  status: ('A' for Active; 'I' for Inactive)
REMARK    1  A    between atoms: O2_2  and  C3_3 
REMARK    2  A    between atoms: C6_6  and  C7_7 
REMARK    3  A    between atoms: C7_7  and  C9_8 
REMARK    4  A    between atoms: C7_7  and  C13_12 
REMARK    5  A    between atoms: C9_8  and  N10_9 
REMARK    6  A    between atoms: C13_12  and  O14_13 
ROOT
ATOM      1  C7  ZIN AC000       2.587  -2.550   4.310  0.00  0.00     0.081 C 
ENDROOT
BRANCH   1   2
ATOM      2  C6  ZIN AC000       2.020  -1.685   3.214  0.00  0.00    -0.049 A 
ATOM      3  C5  ZIN AC000       2.143  -0.310   3.286  0.00  0.00     0.010 A 
ATOM      4  C4  ZIN AC000       1.625   0.485   2.282  0.00  0.00     0.037 A 
ATOM      5  C3  ZIN AC000       0.980  -0.098   1.201  0.00  0.00     0.068 A 
ATOM      6  C21 ZIN AC000       0.853  -1.478   1.133  0.00  0.00     0.037 A 
ATOM      7  C20 ZIN AC000       1.378  -2.269   2.137  0.00  0.00     0.010 A 
BRANCH   5   8
ATOM      8  O2  ZIN AC000       0.469   0.681   0.212  0.00  0.00    -0.356 OA
ATOM      9  C1  ZIN AC000       0.637   2.094   0.348  0.00  0.00     0.210 C 
ENDBRANCH   5   8
ENDBRANCH   1   2
BRANCH   1  10
ATOM     10  C9  ZIN AC000       1.498  -3.488   4.835  0.00  0.00     0.283 C 
BRANCH  10  11
ATOM     11  N10 ZIN AC000       1.990  -4.193   6.026  0.00  0.00     0.080 N 
ATOM     12  C11 ZIN AC000       2.212  -3.258   7.137  0.00  0.00     0.309 C 
ATOM     13  C12 ZIN AC000       1.071  -5.269   6.418  0.00  0.00     0.309 C 
ENDBRANCH  10  11
ENDBRANCH   1  10
BRANCH   1  14
ATOM     14  C13 ZIN AC000       3.749  -3.377   3.758  0.00  0.00     0.067 C 
ATOM     15  C19 ZIN AC000       4.423  -4.137   4.902  0.00  0.00     0.038 C 
ATOM     16  C18 ZIN AC000       5.586  -4.964   4.350  0.00  0.00     0.003 C 
ATOM     17  C17 ZIN AC000       6.604  -4.034   3.686  0.00  0.00     0.000 C 
ATOM     18  C16 ZIN AC000       5.929  -3.275   2.542  0.00  0.00     0.003 C 
ATOM     19  C15 ZIN AC000       4.767  -2.447   3.094  0.00  0.00     0.038 C 
BRANCH  14  20
ATOM     20  O14 ZIN AC000       3.255  -4.309   2.794  0.00  0.00    -0.389 OA
ATOM     21  H35 ZIN AC000       3.939  -4.868   2.401  0.00  0.00     0.210 HD
ENDBRANCH  14  20
ENDBRANCH   1  14
TORSDOF 6
