REMARK  9 active torsions:
REMARK  status: ('A' for Active; 'I' for Inactive)
REMARK    1  A    between atoms: C2_2  and  C3_3 
REMARK    2  A    between atoms: C3_3  and  C4_4 
REMARK    3  A    between atoms: C4_4  and  C5_5 
REMARK    4  A    between atoms: C5_5  and  C7_6 
REMARK    5  A    between atoms: C5_5  and  C9_8 
REMARK    6  A    between atoms: C9_8  and  O10_9 
REMARK    7  A    between atoms: O10_9  and  C11_10 
REMARK    8  A    between atoms: C11_10  and  C13_12 
REMARK    9  A    between atoms: C16_15  and  N17_16 
ROOT
ATOM      1  C11 ZIN AC000       0.652  -6.016  -3.884  0.00  0.00     0.293 C 
ATOM      2  O12 ZIN AC000      -0.134  -6.501  -3.094  0.00  0.00    -0.259 OA
ENDROOT
BRANCH   1   3
ATOM      3  O10 ZIN AC000       1.069  -4.745  -3.726  0.00  0.00    -0.317 OA
BRANCH   3   4
ATOM      4  C9  ZIN AC000       0.540  -4.014  -2.588  0.00  0.00     0.183 C 
BRANCH   4   5
ATOM      5  C5  ZIN AC000       1.123  -2.600  -2.574  0.00  0.00     0.010 C 
BRANCH   5   6
ATOM      6  C4  ZIN AC000       0.466  -1.788  -1.456  0.00  0.00     0.007 C 
BRANCH   6   7
ATOM      7  C3  ZIN AC000       0.957  -0.340  -1.520  0.00  0.00     0.000 C 
BRANCH   7   8
ATOM      8  C2  ZIN AC000       0.300   0.471  -0.402  0.00  0.00    -0.005 C 
ATOM      9  C1  ZIN AC000       0.791   1.919  -0.467  0.00  0.00     0.005 C 
ENDBRANCH   7   8
ENDBRANCH   6   7
ENDBRANCH   5   6
BRANCH   5  10
ATOM     10  C7  ZIN AC000       2.632  -2.673  -2.331  0.00  0.00     0.002 C 
ATOM     11  C8  ZIN AC000       3.305  -3.372  -3.514  0.00  0.00     0.005 C 
ENDBRANCH   5  10
ENDBRANCH   4   5
ENDBRANCH   3   4
ENDBRANCH   1   3
BRANCH   1  12
ATOM     12  C13 ZIN AC000       1.147  -6.819  -5.017  0.00  0.00     0.039 A 
ATOM     13  C21 ZIN AC000       0.715  -8.138  -5.183  0.00  0.00     0.020 A 
ATOM     14  C20 ZIN AC000       1.174  -8.880  -6.241  0.00  0.00     0.030 A 
ATOM     15  C16 ZIN AC000       2.077  -8.325  -7.143  0.00  0.00     0.029 A 
ATOM     16  C15 ZIN AC000       2.515  -7.013  -6.977  0.00  0.00     0.030 A 
ATOM     17  C14 ZIN AC000       2.055  -6.264  -5.924  0.00  0.00     0.020 A 
BRANCH  15  18
ATOM     18  N17 ZIN AC000       2.545  -9.082  -8.211  0.00  0.00    -0.390 N 
ATOM     19  C18 ZIN AC000       3.396  -8.463  -9.230  0.00  0.00     0.149 C 
ATOM     20  C19 ZIN AC000       2.186 -10.498  -8.318  0.00  0.00     0.149 C 
ENDBRANCH  15  18
ENDBRANCH   1  12
TORSDOF 9
