REMARK  5 active torsions:
REMARK  status: ('A' for Active; 'I' for Inactive)
REMARK    1  A    between atoms: N10_10  and  C11_11 
REMARK    2  A    between atoms: C14_13  and  C16_14 
REMARK    3  A    between atoms: C16_14  and  O17_15 
REMARK    4  A    between atoms: C18_16  and  O20_17 
REMARK    5  A    between atoms: C21_18  and  O23_19 
ROOT
ATOM      1  C11 <0> d           2.827   5.211  -0.020  0.00  0.00     0.262 C 
ATOM      2  O13 <0> d           4.168   5.334  -0.540  0.00  0.00    -0.353 OA
ATOM      3  C14 <0> d           4.693   6.583  -0.059  0.00  0.00     0.179 C 
ATOM      4  C18 <0> d           3.963   6.909   1.258  0.00  0.00     0.182 C 
ATOM      5  C21 <0> d           2.947   5.751   1.428  0.00  0.00     0.198 C 
ENDROOT
BRANCH   1   6
ATOM      6  N10 <0> d           2.402   3.809  -0.014  0.00  0.00    -0.294 N 
ATOM      7  C6  <0> d           1.112   3.355   0.003  0.00  0.00     0.169 A 
ATOM      8  N5  <0> d          -0.090   3.950   0.024  0.00  0.00    -0.221 NA
ATOM      9  C7  <0> d           1.192   1.959   0.001  0.00  0.00     0.174 A 
ATOM     10  C4  <0> d          -1.190   3.250   0.036  0.00  0.00     0.239 A 
ATOM     11  N3  <0> d          -1.183   1.893   0.029  0.00  0.00    -0.201 NA
ATOM     12  C2  <0> d          -0.015   1.215   0.009  0.00  0.00     0.300 A 
ATOM     13  O1  <0> d           0.002  -0.004   0.002  0.00  0.00    -0.263 OA
ATOM     14  N8  <0> d           2.504   1.631  -0.022  0.00  0.00    -0.234 NA
ATOM     15  C9  <0> d           3.220   2.719  -0.034  0.00  0.00     0.214 A 
ENDBRANCH   1   6
BRANCH   5  16
ATOM     16  O23 <0> d           1.690   6.240   1.902  0.00  0.00    -0.388 OA
ATOM     17  H30 <0> d           1.736   6.668   2.768  0.00  0.00     0.210 HD
ENDBRANCH   5  16
BRANCH   4  18
ATOM     18  O20 <0> d           3.280   8.161   1.155  0.00  0.00    -0.390 OA
ATOM     19  H29 <0> d           3.864   8.914   0.990  0.00  0.00     0.210 HD
ENDBRANCH   4  18
BRANCH   3  20
ATOM     20  C16 <0> d           6.196   6.452   0.194  0.00  0.00     0.198 C 
BRANCH  20  21
ATOM     21  O17 <0> d           6.872   6.251  -1.049  0.00  0.00    -0.398 OA
ATOM     22  H28 <0> d           7.832   6.160  -0.964  0.00  0.00     0.209 HD
ENDBRANCH  20  21
ENDBRANCH   3  20
TORSDOF 5
