REMARK  6 active torsions:
REMARK  status: ('A' for Active; 'I' for Inactive)
REMARK    1  A    between atoms: N2_2  and  C5_5 
REMARK    2  A    between atoms: C5_5  and  C6_6 
REMARK    3  A    between atoms: C6_6  and  C7_7 
REMARK    4  A    between atoms: C7_7  and  O9_8 
REMARK    5  A    between atoms: C7_7  and  C17_16 
REMARK    6  A    between atoms: O9_8  and  C10_9 
ROOT
ATOM      1  C7  <0> d           1.380  -2.272  -2.475  0.00  0.00     0.163 C 
ENDROOT
BRANCH   1   2
ATOM      2  C6  <0> d           0.767  -1.798  -1.156  0.00  0.00     0.065 C 
BRANCH   2   3
ATOM      3  C5  <0> d           0.992  -0.292  -1.001  0.00  0.00     0.234 C 
BRANCH   3   4
ATOM      4  N2  <0> d           0.402   0.163   0.266  0.00  0.00    -0.079 N 
ATOM      5  C1  <0> d           0.619   1.608   0.415  0.00  0.00     0.266 C 
ATOM      6  H3  <0> d           0.840  -0.324   1.034  0.00  0.00     0.276 HD
ATOM      7  H4  <0> d          -0.588  -0.031   0.265  0.00  0.00     0.276 HD
ENDBRANCH   3   4
ENDBRANCH   2   3
ENDBRANCH   1   2
BRANCH   1   8
ATOM      8  O9  <0> d           2.799  -2.105  -2.428  0.00  0.00    -0.341 OA
BRANCH   8   9
ATOM      9  C10 <0> d           3.445  -1.980  -3.616  0.00  0.00     0.075 A 
ATOM     10  C15 <0> d           4.803  -1.694  -3.643  0.00  0.00    -0.029 A 
ATOM     11  C14 <0> d           5.459  -1.573  -4.852  0.00  0.00     0.009 A 
ATOM     12  C16 <0> d           5.564  -1.528  -2.352  0.00  0.00     0.051 C 
ATOM     13  C13 <0> d           4.761  -1.724  -6.036  0.00  0.00     0.001 A 
ATOM     14  C12 <0> d           3.407  -2.003  -6.013  0.00  0.00     0.003 A 
ATOM     15  C11 <0> d           2.748  -2.131  -4.806  0.00  0.00     0.037 A 
ENDBRANCH   8   9
ENDBRANCH   1   8
BRANCH   1  16
ATOM     16  C17 <0> d           1.053  -3.728  -2.687  0.00  0.00    -0.029 A 
ATOM     17  C22 <0> d           0.020  -4.088  -3.532  0.00  0.00     0.010 A 
ATOM     18  C21 <0> d          -0.277  -5.423  -3.730  0.00  0.00     0.001 A 
ATOM     19  C20 <0> d           0.452  -6.398  -3.075  0.00  0.00     0.000 A 
ATOM     20  C19 <0> d           1.481  -6.038  -2.225  0.00  0.00     0.001 A 
ATOM     21  C18 <0> d           1.782  -4.702  -2.031  0.00  0.00     0.010 A 
ENDBRANCH   1  16
TORSDOF 6
