REMARK  4 active torsions:
REMARK  status: ('A' for Active; 'I' for Inactive)
REMARK    1  A    between atoms: N2_2  and  O4_4 
REMARK    2  A    between atoms: O4_4  and  C5_5 
REMARK    3  A    between atoms: C11_9  and  O13_10 
REMARK    4  A    between atoms: O13_10  and  N14_11 
ROOT
ATOM      1  C5  ZIN AC000      -2.395   1.050   0.019  0.00  0.00     0.214 C 
ATOM      2  C7  ZIN AC000      -2.798   0.695  -1.421  0.00  0.00     0.205 C 
ATOM      3  O8  ZIN AC000      -4.104   1.224  -1.657  0.00  0.00    -0.378 OA
ATOM      4  C9  ZIN AC000      -4.755   1.466  -0.401  0.00  0.00     0.186 C 
ATOM      5  C11 ZIN AC000      -5.545   2.792  -0.512  0.00  0.00     0.214 C 
ATOM      6  C17 ZIN AC000      -4.774   3.770   0.401  0.00  0.00     0.205 C 
ATOM      7  O18 ZIN AC000      -3.436   3.229   0.477  0.00  0.00    -0.378 OA
ATOM      8  C19 ZIN AC000      -3.613   1.786   0.605  0.00  0.00     0.186 C 
ENDROOT
BRANCH   1   9
ATOM      9  O4  ZIN AC000      -1.250   1.905   0.018  0.00  0.00    -0.211 OA
BRANCH   9  10
ATOM     10  N2  ZIN AC000      -0.014   1.214   0.009  0.00  0.00     0.005 N 
ATOM     11  O1  ZIN AC000       0.002  -0.004   0.002  0.00  0.00    -0.511 OA
ATOM     12  O3  ZIN AC000       1.032   1.837   0.002  0.00  0.00    -0.511 OA
ENDBRANCH   9  10
ENDBRANCH   1   9
BRANCH   5  13
ATOM     13  O13 ZIN AC000      -6.884   2.617  -0.045  0.00  0.00    -0.211 OA
BRANCH  13  14
ATOM     14  N14 ZIN AC000      -7.810   3.536  -0.594  0.00  0.00     0.005 N 
ATOM     15  O15 ZIN AC000      -7.434   4.377  -1.391  0.00  0.00    -0.511 OA
ATOM     16  O16 ZIN AC000      -8.983   3.485  -0.271  0.00  0.00    -0.511 OA
ENDBRANCH  13  14
ENDBRANCH   5  13
TORSDOF 4
