REMARK  2 active torsions:
REMARK  status: ('A' for Active; 'I' for Inactive)
REMARK    1  A    between atoms: N2_2  and  C5_5 
REMARK    2  A    between atoms: C14_13  and  C15_14 
REMARK       I    between atoms: C15_14  and  N16_15 
ROOT
ATOM      1  C5  ZIN AC000      -1.376  -0.512   0.012  0.00  0.00     0.190 C 
ATOM      2  C7  ZIN AC000      -2.054  -0.126   1.330  0.00  0.00     0.039 C 
ATOM      3  C8  ZIN AC000      -3.553  -0.433   1.242  0.00  0.00     0.059 C 
ATOM      4  C9  ZIN AC000      -3.725  -1.852   0.752  0.00  0.00     0.017 A 
ATOM      5  C10 ZIN AC000      -2.748  -2.561   0.149  0.00  0.00    -0.021 A 
ATOM      6  C11 ZIN AC000      -1.359  -2.040  -0.120  0.00  0.00     0.074 C 
ATOM      7  C12 ZIN AC000      -3.300  -3.863  -0.165  0.00  0.00    -0.000 A 
ATOM      8  C13 ZIN AC000      -2.764  -4.994  -0.779  0.00  0.00     0.031 A 
ATOM      9  C14 ZIN AC000      -3.615  -6.096  -0.913  0.00  0.00     0.032 A 
ATOM     10  C18 ZIN AC000      -4.935  -6.061  -0.454  0.00  0.00     0.019 A 
ATOM     11  C19 ZIN AC000      -5.471  -4.955   0.151  0.00  0.00     0.031 A 
ATOM     12  C20 ZIN AC000      -4.643  -3.841   0.297  0.00  0.00     0.043 A 
ATOM     13  N21 ZIN AC000      -4.863  -2.612   0.843  0.00  0.00    -0.358 N 
ATOM     14  H36 ZIN AC000      -5.699  -2.318   1.237  0.00  0.00     0.166 HD
ENDROOT
BRANCH   9  15
ATOM     15  C15 ZIN AC000      -3.107  -7.325  -1.555  0.00  0.00     0.249 C 
ATOM     16  N16 ZIN AC000      -3.913  -8.396  -1.693  0.00  0.00    -0.366 N 
ATOM     17  H32 ZIN AC000      -4.827  -8.359  -1.371  0.00  0.00     0.159 HD
ATOM     18  H33 ZIN AC000      -3.580  -9.203  -2.115  0.00  0.00     0.159 HD
ATOM     19  O17 ZIN AC000      -1.961  -7.371  -1.959  0.00  0.00    -0.268 OA
ENDBRANCH   9  15
BRANCH   1  20
ATOM     20  N2  ZIN AC000       0.002  -0.004   0.002  0.00  0.00    -0.074 N 
ATOM     21  C1  ZIN AC000      -0.018   1.465   0.010  0.00  0.00     0.267 C 
ATOM     22  H3  ZIN AC000       0.474  -0.330  -0.828  0.00  0.00     0.277 HD
ATOM     23  H4  ZIN AC000       0.490  -0.338   0.820  0.00  0.00     0.277 HD
ENDBRANCH   1  20
TORSDOF 2
