REMARK  2 active torsions:
REMARK  status: ('A' for Active; 'I' for Inactive)
REMARK    1  A    between atoms: P2_2  and  O5_5 
REMARK    2  A    between atoms: O5_5  and  P6_6 
ROOT
ATOM      1  O5  ZIN AC000      -0.773   2.082   1.335  0.00  0.00    -0.166 OA
ENDROOT
BRANCH   1   2
ATOM      2  P2  ZIN AC000      -0.019   1.562   0.011  0.00  0.00     0.432 P 
ATOM      3  O1  ZIN AC000       0.002  -0.004   0.002  0.00  0.00    -0.616 OA
ATOM      4  O3  ZIN AC000       1.451   2.105  -0.001  0.00  0.00    -0.616 OA
ATOM      5  O4  ZIN AC000      -0.777   2.081  -1.259  0.00  0.00    -0.616 OA
ENDBRANCH   1   2
BRANCH   1   6
ATOM      6  P6  ZIN AC000      -0.712   3.440   2.197  0.00  0.00     0.432 P 
ATOM      7  O7  ZIN AC000       0.775   3.924   2.305  0.00  0.00    -0.616 OA
ATOM      8  O8  ZIN AC000      -1.570   4.545   1.492  0.00  0.00    -0.616 OA
ATOM      9  O9  ZIN AC000      -1.279   3.174   3.633  0.00  0.00    -0.616 OA
ENDBRANCH   1   6
TORSDOF 2
