REMARK  4 active torsions:
REMARK  status: ('A' for Active; 'I' for Inactive)
REMARK    1  A    between atoms: C2_2  and  C3_3 
REMARK    2  A    between atoms: C3_3  and  N4_4 
REMARK    3  A    between atoms: C9_9  and  C11_10 
REMARK       I    between atoms: C11_10  and  N13_12 
REMARK    4  A    between atoms: N13_12  and  C14_13 
ROOT
ATOM      1  C11 ZIN AC000       1.540  -1.455  -3.621  0.00  0.00     0.255 C 
ATOM      2  O12 ZIN AC000       0.919  -0.419  -3.514  0.00  0.00    -0.271 OA
ATOM      3  N13 ZIN AC000       1.717  -2.012  -4.835  0.00  0.00    -0.324 N 
ATOM      4  H37 ZIN AC000       2.143  -2.880  -4.913  0.00  0.00     0.169 HD
ENDROOT
BRANCH   1   5
ATOM      5  C9  ZIN AC000       2.112  -2.121  -2.396  0.00  0.00     0.314 C 
ATOM      6  N4  ZIN AC000       2.412  -1.103  -1.381  0.00  0.00     0.102 N 
ATOM      7  C5  ZIN AC000       3.011  -1.706  -0.184  0.00  0.00     0.273 C 
ATOM      8  C6  ZIN AC000       2.022  -2.691   0.442  0.00  0.00     0.030 C 
ATOM      9  C7  ZIN AC000       1.674  -3.777  -0.580  0.00  0.00     0.004 C 
ATOM     10  C8  ZIN AC000       1.096  -3.118  -1.835  0.00  0.00     0.046 C 
BRANCH   6  11
ATOM     11  C3  ZIN AC000       3.277  -0.051  -1.930  0.00  0.00     0.273 C 
BRANCH  11  12
ATOM     12  C2  ZIN AC000       3.649   0.935  -0.821  0.00  0.00     0.026 C 
ATOM     13  C1  ZIN AC000       4.551   2.031  -1.392  0.00  0.00     0.007 C 
ENDBRANCH  11  12
ENDBRANCH   6  11
ENDBRANCH   1   5
BRANCH   3  14
ATOM     14  C14 ZIN AC000       1.287  -1.338  -5.984  0.00  0.00     0.046 A 
ATOM     15  C20 ZIN AC000       2.188  -1.050  -7.000  0.00  0.00    -0.035 A 
ATOM     16  C19 ZIN AC000       1.759  -0.391  -8.135  0.00  0.00     0.009 A 
ATOM     17  C21 ZIN AC000       3.630  -1.470  -6.871  0.00  0.00     0.050 C 
ATOM     18  C18 ZIN AC000       0.436  -0.006  -8.255  0.00  0.00     0.001 A 
ATOM     19  C17 ZIN AC000      -0.462  -0.285  -7.241  0.00  0.00     0.009 A 
ATOM     20  C15 ZIN AC000      -0.041  -0.951  -6.107  0.00  0.00    -0.035 A 
ATOM     21  C16 ZIN AC000      -1.021  -1.255  -5.003  0.00  0.00     0.050 C 
ENDBRANCH   3  14
TORSDOF 4
