REMARK  7 active torsions:
REMARK  status: ('A' for Active; 'I' for Inactive)
REMARK    1  A    between atoms: O1_1  and  C2_2 
REMARK    2  A    between atoms: C2_2  and  C3_3 
REMARK    3  A    between atoms: C3_3  and  N4_4 
REMARK    4  A    between atoms: N7_7  and  C9_9 
REMARK    5  A    between atoms: C9_9  and  C10_10 
REMARK    6  A    between atoms: C10_10  and  C11_11 
REMARK    7  A    between atoms: C11_11  and  N12_12 
ROOT
ATOM      1  N12 ZIN AC000      -8.609   1.506  -4.739  0.00  0.00    -0.345 N 
ATOM      2  C13 ZIN AC000      -9.316   2.670  -4.448  0.00  0.00     0.052 A 
ATOM      3  C14 ZIN AC000      -8.630   3.752  -3.908  0.00  0.00     0.031 A 
ATOM      4  C15 ZIN AC000      -9.299   4.925  -3.610  0.00  0.00     0.002 A 
ATOM      5  C16 ZIN AC000     -10.656   5.030  -3.847  0.00  0.00     0.002 A 
ATOM      6  C17 ZIN AC000     -11.348   3.959  -4.382  0.00  0.00     0.021 A 
ATOM      7  C18 ZIN AC000     -10.684   2.777  -4.683  0.00  0.00     0.032 A 
ATOM      8  S19 ZIN AC000     -11.589   1.427  -5.357  0.00  0.00    -0.086 SA
ATOM      9  C20 ZIN AC000     -10.526   0.049  -5.093  0.00  0.00     0.032 A 
ATOM     10  C21 ZIN AC000     -11.048  -1.236  -5.166  0.00  0.00     0.023 A 
ATOM     11  C22 ZIN AC000     -10.230  -2.332  -4.960  0.00  0.00     0.025 A 
ATOM     12  C23 ZIN AC000      -8.889  -2.150  -4.680  0.00  0.00     0.036 A 
ATOM     13 Cl24 ZIN AC000      -7.863  -3.526  -4.420  0.00  0.00    -0.084 Cl
ATOM     14  C25 ZIN AC000      -8.362  -0.873  -4.605  0.00  0.00     0.054 A 
ATOM     15  C26 ZIN AC000      -9.177   0.237  -4.817  0.00  0.00     0.053 A 
ENDROOT
BRANCH   1  16
ATOM     16  C11 ZIN AC000      -7.170   1.626  -4.987  0.00  0.00     0.131 C 
BRANCH  16  17
ATOM     17  C10 ZIN AC000      -6.412   1.482  -3.666  0.00  0.00     0.048 C 
BRANCH  17  18
ATOM     18  C9  ZIN AC000      -4.909   1.607  -3.924  0.00  0.00     0.236 C 
BRANCH  18  19
ATOM     19  N7  ZIN AC000      -4.181   1.468  -2.655  0.00  0.00    -0.068 N 
ATOM     20  C6  ZIN AC000      -2.750   1.707  -2.884  0.00  0.00     0.265 C 
ATOM     21  C5  ZIN AC000      -1.994   1.581  -1.560  0.00  0.00     0.300 C 
ATOM     22  N4  ZIN AC000      -2.201   0.235  -1.006  0.00  0.00     0.093 N 
ATOM     23  C28 ZIN AC000      -3.632  -0.028  -0.795  0.00  0.00     0.300 C 
ATOM     24  C27 ZIN AC000      -4.374   0.112  -2.126  0.00  0.00     0.265 C 
ATOM     25  H8  ZIN AC000      -4.532   2.141  -1.991  0.00  0.00     0.280 HD
BRANCH  22  26
ATOM     26  C3  ZIN AC000      -1.444   0.056   0.239  0.00  0.00     0.298 C 
BRANCH  26  27
ATOM     27  C2  ZIN AC000      -1.670   1.262   1.152  0.00  0.00     0.194 C 
BRANCH  27  28
ATOM     28  O1  ZIN AC000      -3.037   1.296   1.567  0.00  0.00    -0.399 OA
ATOM     29  H29 ZIN AC000      -3.253   2.036   2.150  0.00  0.00     0.209 HD
ENDBRANCH  27  28
ENDBRANCH  26  27
ENDBRANCH  22  26
ENDBRANCH  18  19
ENDBRANCH  17  18
ENDBRANCH  16  17
ENDBRANCH   1  16
TORSDOF 7
