REMARK  2 active torsions:
REMARK  status: ('A' for Active; 'I' for Inactive)
REMARK    1  A    between atoms: N1_1  and  S2_2 
REMARK    2  A    between atoms: S2_2  and  C5_5 
ROOT
ATOM      1  C5  ZIN AC000      -0.846  -0.529  -1.450  0.00  0.00     0.102 A 
ATOM      2  C6  ZIN AC000      -0.165  -1.208  -2.444  0.00  0.00     0.054 A 
ATOM      3  C7  ZIN AC000      -0.831  -1.624  -3.578  0.00  0.00     0.107 A 
ATOM      4  C8  ZIN AC000      -2.188  -1.375  -3.732  0.00  0.00     0.054 A 
ATOM      5  C9  ZIN AC000      -2.866  -0.681  -2.732  0.00  0.00     0.056 A 
ATOM      6  C10 ZIN AC000      -2.198  -0.269  -1.597  0.00  0.00     0.059 A 
ATOM      7 Cl11 ZIN AC000      -3.052   0.592  -0.354  0.00  0.00    -0.083 Cl
ATOM      8  N12 ZIN AC000      -2.900  -1.817  -4.844  0.00  0.00    -0.372 N 
ATOM      9  C13 ZIN AC000      -2.273  -2.141  -6.123  0.00  0.00     0.255 C 
ATOM     10  N14 ZIN AC000      -1.136  -3.051  -5.876  0.00  0.00    -0.299 N 
ATOM     11  S15 ZIN AC000       0.049  -2.475  -4.853  0.00  0.00     0.262 S 
ATOM     12  O16 ZIN AC000       0.774  -1.491  -5.578  0.00  0.00    -0.200 OA
ATOM     13  O17 ZIN AC000       0.654  -3.609  -4.247  0.00  0.00    -0.200 OA
ATOM     14  H22 ZIN AC000      -3.862  -1.914  -4.765  0.00  0.00     0.161 HD
ATOM     15  H25 ZIN AC000      -1.082  -3.929  -6.284  0.00  0.00     0.174 HD
ENDROOT
BRANCH   1  16
ATOM     16  S2  ZIN AC000       0.002  -0.004   0.002  0.00  0.00     0.258 S 
ATOM     17  O3  ZIN AC000       1.360  -0.386  -0.166  0.00  0.00    -0.201 OA
ATOM     18  O4  ZIN AC000      -0.792  -0.422   1.104  0.00  0.00    -0.201 OA
BRANCH  16  19
ATOM     19  N1  ZIN AC000      -0.020   1.652   0.011  0.00  0.00    -0.324 N 
ATOM     20  H18 ZIN AC000       0.813   2.148   0.006  0.00  0.00     0.169 HD
ATOM     21  H19 ZIN AC000      -0.867   2.125   0.018  0.00  0.00     0.169 HD
ENDBRANCH  16  19
ENDBRANCH   1  16
TORSDOF 2
