REMARK  0 active torsions:
REMARK  status: ('A' for Active; 'I' for Inactive)
ROOT
ATOM      1  C1  <0> d          -0.018   1.461   0.010  0.00  0.00     0.158 C 
ATOM      2  N2  <0> d           0.002  -0.004   0.002  0.00  0.00    -0.337 N 
ATOM      3  C3  <0> d           0.008  -0.812  -1.124  0.00  0.00     0.110 A 
ATOM      4  C4  <0> d           0.027  -2.078  -0.719  0.00  0.00     0.107 A 
ATOM      5  N5  <0> d           0.033  -2.082   0.667  0.00  0.00    -0.342 N 
ATOM      6  C6  <0> d           0.023  -0.802   1.088  0.00  0.00     0.177 A 
ATOM      7  S7  <0> d           0.025  -0.280   2.719  0.00  0.00    -0.040 SA
ATOM      8  H13 <0> d           0.045  -2.868   1.235  0.00  0.00     0.167 HD
ENDROOT
TORSDOF 0
