REMARK  1 active torsions:
REMARK  status: ('A' for Active; 'I' for Inactive)
REMARK       I    between atoms: N1_1  and  C2_2 
REMARK       I    between atoms: C2_2  and  N4_4 
REMARK    1  A    between atoms: N4_4  and  O5_5 
ROOT
ATOM      1  N1  RES d   1      -0.016   1.344   0.009  0.00  0.00    -0.350 N 
ATOM      2  C2  RES d   1       0.002  -0.004   0.002  0.00  0.00     0.337 C 
ATOM      3  O3  RES d   1       1.063  -0.598  -0.011  0.00  0.00    -0.245 OA
ATOM      4  N4  RES d   1      -1.156  -0.694   0.009  0.00  0.00    -0.219 N 
ATOM      5  H6  RES d   1       0.817   1.840   0.004  0.00  0.00     0.160 HD
ATOM      6  H7  RES d   1      -0.863   1.817   0.016  0.00  0.00     0.160 HD
ATOM      7  H8  RES d   1      -2.002  -0.220   0.020  0.00  0.00     0.199 HD
ENDROOT
BRANCH   4   8
ATOM      8  O5  RES d   1      -1.137  -2.110   0.002  0.00  0.00    -0.286 OA
ATOM      9  H9  RES d   1      -2.015  -2.515   0.008  0.00  0.00     0.244 HD
ENDBRANCH   4   8
TORSDOF 1
