REMARK  7 active torsions:
REMARK  status: ('A' for Active; 'I' for Inactive)
REMARK    1  A    between atoms: C2_2  and  C3_3 
REMARK    2  A    between atoms: C3_3  and  O5_5 
REMARK    3  A    between atoms: O5_5  and  C6_6 
REMARK    4  A    between atoms: C6_6  and  C7_7 
REMARK    5  A    between atoms: C7_7  and  S9_9 
REMARK    6  A    between atoms: S9_9  and  C10_10 
REMARK    7  A    between atoms: C34_30  and  O36_31 
ROOT
ATOM      1  C6  ZIN AC000       0.830  -3.332   2.289  0.00  0.00     0.152 C 
ATOM      2  C12 ZIN AC000       1.877  -2.190   2.284  0.00  0.00     0.027 C 
ATOM      3  C14 ZIN AC000       1.729  -1.347   1.016  0.00  0.00     0.014 C 
ATOM      4  C15 ZIN AC000       3.271  -2.875   2.311  0.00  0.00     0.013 C 
ATOM      5  C16 ZIN AC000       2.984  -4.261   1.723  0.00  0.00     0.005 C 
ATOM      6  C18 ZIN AC000       3.986  -5.346   2.072  0.00  0.00     0.037 C 
ATOM      7  C20 ZIN AC000       5.360  -4.987   1.504  0.00  0.00     0.050 C 
ATOM      8  C21 ZIN AC000       6.376  -6.067   1.889  0.00  0.00     0.201 C 
ATOM      9  F23 ZIN AC000       7.605  -5.801   1.275  0.00  0.00    -0.245 F 
ATOM     10  C24 ZIN AC000       5.844  -7.406   1.414  0.00  0.00    -0.027 A 
ATOM     11  C25 ZIN AC000       6.627  -8.184   0.679  0.00  0.00     0.061 A 
ATOM     12  C26 ZIN AC000       6.139  -9.480   0.183  0.00  0.00     0.172 A 
ATOM     13  O27 ZIN AC000       6.867 -10.215  -0.458  0.00  0.00    -0.289 OA
ATOM     14  C28 ZIN AC000       4.750  -9.868   0.479  0.00  0.00     0.052 A 
ATOM     15  C29 ZIN AC000       3.988  -9.079   1.221  0.00  0.00    -0.006 A 
ATOM     16  C30 ZIN AC000       4.447  -7.787   1.806  0.00  0.00     0.039 A 
ATOM     17  C31 ZIN AC000       4.409  -7.924   3.329  0.00  0.00     0.028 C 
ATOM     18  C32 ZIN AC000       3.476  -6.657   1.453  0.00  0.00     0.147 C 
ATOM     19  F33 ZIN AC000       3.433  -6.505   0.063  0.00  0.00    -0.238 F 
ATOM     20  C34 ZIN AC000       2.078  -7.023   1.942  0.00  0.00     0.160 C 
ATOM     21  C37 ZIN AC000       1.082  -5.872   1.728  0.00  0.00     0.048 C 
ATOM     22  C38 ZIN AC000       1.637  -4.620   2.407  0.00  0.00     0.003 C 
ATOM     23  C39 ZIN AC000       1.944  -4.919   3.876  0.00  0.00     0.019 C 
ENDROOT
BRANCH   1  24
ATOM     24  O5  ZIN AC000       0.071  -3.324   1.051  0.00  0.00    -0.300 OA
BRANCH  24  25
ATOM     25  C3  ZIN AC000      -0.777  -2.302   0.862  0.00  0.00     0.259 C 
ATOM     26  O4  ZIN AC000      -0.939  -1.482   1.734  0.00  0.00    -0.265 OA
BRANCH  25  27
ATOM     27  C2  ZIN AC000      -1.530  -2.178  -0.438  0.00  0.00     0.106 C 
ATOM     28  C1  ZIN AC000      -2.422  -0.935  -0.394  0.00  0.00     0.015 C 
ENDBRANCH  25  27
ENDBRANCH  24  25
ENDBRANCH   1  24
BRANCH   1  29
ATOM     29  C7  ZIN AC000      -0.097  -3.187   3.469  0.00  0.00     0.224 C 
ATOM     30  O8  ZIN AC000       0.245  -2.534   4.433  0.00  0.00    -0.282 OA
BRANCH  29  31
ATOM     31  S9  ZIN AC000      -1.633  -3.943   3.448  0.00  0.00    -0.058 SA
BRANCH  31  32
ATOM     32  C10 ZIN AC000      -2.258  -3.429   5.068  0.00  0.00     0.304 C 
ATOM     33  F11 ZIN AC000      -2.635  -2.083   5.017  0.00  0.00    -0.244 F 
ENDBRANCH  31  32
ENDBRANCH  29  31
ENDBRANCH   1  29
BRANCH  20  34
ATOM     34  O36 ZIN AC000       2.137  -7.333   3.336  0.00  0.00    -0.392 OA
ATOM     35  H60 ZIN AC000       1.284  -7.576   3.722  0.00  0.00     0.210 HD
ENDBRANCH  20  34
TORSDOF 7
