REMARK  12 active torsions:
REMARK  status: ('A' for Active; 'I' for Inactive)
REMARK    1  A    between atoms: C2_2  and  C4_4 
REMARK    2  A    between atoms: C2_2  and  C7_7 
REMARK    3  A    between atoms: C10_10  and  C11_11 
REMARK    4  A    between atoms: C11_11  and  O13_12 
REMARK    5  A    between atoms: C11_11  and  C14_13 
REMARK    6  A    between atoms: C14_13  and  C15_14 
REMARK    7  A    between atoms: C15_14  and  C16_15 
REMARK    8  A    between atoms: C16_15  and  N17_16 
REMARK    9  A    between atoms: C21_20  and  C22_21 
REMARK   10  A    between atoms: C22_21  and  O23_22 
REMARK   11  A    between atoms: C22_21  and  C24_23 
REMARK   12  A    between atoms: C22_21  and  C30_29 
ROOT
ATOM      1  N17 ZIN AC000       2.058  -3.181  -9.478  0.00  0.00    -0.071 N 
ATOM      2  H18 ZIN AC000       2.709  -2.449  -9.722  0.00  0.00     0.279 HD
ATOM      3  C19 ZIN AC000       1.074  -3.339 -10.556  0.00  0.00     0.235 C 
ATOM      4  C20 ZIN AC000       1.797  -3.633 -11.872  0.00  0.00     0.036 C 
ATOM      5  C21 ZIN AC000       2.608  -4.924 -11.726  0.00  0.00     0.033 C 
ATOM      6  C36 ZIN AC000       3.580  -4.774 -10.551  0.00  0.00     0.036 C 
ATOM      7  C37 ZIN AC000       2.790  -4.439  -9.284  0.00  0.00     0.235 C 
ENDROOT
BRANCH   1   8
ATOM      8  C16 ZIN AC000       1.366  -2.822  -8.233  0.00  0.00     0.235 C 
BRANCH   8   9
ATOM      9  C15 ZIN AC000       2.397  -2.532  -7.141  0.00  0.00     0.030 C 
BRANCH   9  10
ATOM     10  C14 ZIN AC000       1.675  -2.158  -5.845  0.00  0.00     0.038 C 
BRANCH  10  11
ATOM     11  C11 ZIN AC000       2.707  -1.868  -4.752  0.00  0.00     0.151 C 
BRANCH  11  12
ATOM     12  C10 ZIN AC000       2.002  -1.382  -3.512  0.00  0.00    -0.030 A 
ATOM     13  C9  ZIN AC000       1.864  -0.026  -3.282  0.00  0.00     0.010 A 
ATOM     14  C8  ZIN AC000       1.217   0.420  -2.145  0.00  0.00     0.009 A 
ATOM     15  C7  ZIN AC000       0.707  -0.490  -1.238  0.00  0.00    -0.040 A 
ATOM     16  C39 ZIN AC000       0.850  -1.846  -1.465  0.00  0.00     0.009 A 
ATOM     17  C38 ZIN AC000       1.494  -2.292  -2.604  0.00  0.00     0.010 A 
BRANCH  15  18
ATOM     18  C2  ZIN AC000       0.002  -0.004   0.002  0.00  0.00     0.068 C 
ATOM     19  C1  ZIN AC000      -0.019   1.526   0.010  0.00  0.00     0.032 C 
ATOM     20  C3  ZIN AC000       0.742  -0.511   1.242  0.00  0.00     0.032 C 
BRANCH  18  21
ATOM     21  C4  ZIN AC000      -1.412  -0.526   0.013  0.00  0.00     0.185 C 
ATOM     22  O5  ZIN AC000      -2.349   0.254   0.026  0.00  0.00    -0.647 OA
ATOM     23  O6  ZIN AC000      -1.618  -1.727   0.008  0.00  0.00    -0.647 OA
ENDBRANCH  18  21
ENDBRANCH  15  18
ENDBRANCH  11  12
BRANCH  11  24
ATOM     24  O13 ZIN AC000       3.431  -3.062  -4.451  0.00  0.00    -0.391 OA
ATOM     25  H48 ZIN AC000       2.877  -3.789  -4.135  0.00  0.00     0.210 HD
ENDBRANCH  11  24
ENDBRANCH  10  11
ENDBRANCH   9  10
ENDBRANCH   8   9
ENDBRANCH   1   8
BRANCH   5  26
ATOM     26  C22 ZIN AC000       3.396  -5.181 -13.012  0.00  0.00     0.116 C 
BRANCH  26  27
ATOM     27  O23 ZIN AC000       4.283  -4.087 -13.254  0.00  0.00    -0.380 OA
ATOM     28  H60 ZIN AC000       3.837  -3.236 -13.359  0.00  0.00     0.211 HD
ENDBRANCH  26  27
BRANCH  26  29
ATOM     29  C24 ZIN AC000       4.194  -6.452 -12.866  0.00  0.00    -0.019 A 
ATOM     30  C29 ZIN AC000       5.392  -6.596 -13.540  0.00  0.00     0.010 A 
ATOM     31  C28 ZIN AC000       6.126  -7.760 -13.403  0.00  0.00     0.001 A 
ATOM     32  C27 ZIN AC000       5.657  -8.782 -12.600  0.00  0.00     0.000 A 
ATOM     33  C26 ZIN AC000       4.456  -8.639 -11.930  0.00  0.00     0.001 A 
ATOM     34  C25 ZIN AC000       3.724  -7.474 -12.063  0.00  0.00     0.010 A 
ENDBRANCH  26  29
BRANCH  26  35
ATOM     35  C30 ZIN AC000       2.439  -5.319 -14.168  0.00  0.00    -0.019 A 
ATOM     36  C35 ZIN AC000       2.833  -4.944 -15.439  0.00  0.00     0.010 A 
ATOM     37  C34 ZIN AC000       1.957  -5.074 -16.500  0.00  0.00     0.001 A 
ATOM     38  C33 ZIN AC000       0.684  -5.570 -16.289  0.00  0.00     0.000 A 
ATOM     39  C32 ZIN AC000       0.289  -5.940 -15.017  0.00  0.00     0.001 A 
ATOM     40  C31 ZIN AC000       1.166  -5.814 -13.957  0.00  0.00     0.010 A 
ENDBRANCH  26  35
ENDBRANCH   5  26
TORSDOF 12
