REMARK  12 active torsions:
REMARK  status: ('A' for Active; 'I' for Inactive)
REMARK    1  A    between atoms: C2_2  and  O4_4 
REMARK    2  A    between atoms: O4_4  and  C5_5 
REMARK    3  A    between atoms: C5_5  and  C7_7 
REMARK    4  A    between atoms: C7_7  and  N10_9 
REMARK    5  A    between atoms: N10_9  and  P11_10 
REMARK    6  A    between atoms: P11_10  and  O13_12 
REMARK    7  A    between atoms: P11_10  and  O34_30 
REMARK    8  A    between atoms: O13_12  and  C14_13 
REMARK    9  A    between atoms: C14_13  and  C15_14 
REMARK   10  A    between atoms: C18_16  and  N20_17 
REMARK   11  A    between atoms: C31_28  and  O33_29 
REMARK   12  A    between atoms: O34_30  and  C35_31 
ROOT
ATOM      1  O13 ZIN AC000      -4.477  -2.440  -3.974  0.00  0.00    -0.299 OA
ENDROOT
BRANCH   1   2
ATOM      2  P11 ZIN AC000      -4.544  -3.593  -2.853  0.00  0.00     0.413 P 
ATOM      3  O12 ZIN AC000      -4.433  -4.919  -3.502  0.00  0.00    -0.239 OA
BRANCH   2   4
ATOM      4  N10 ZIN AC000      -3.275  -3.393  -1.765  0.00  0.00    -0.213 NA
ATOM      5  H51 ZIN AC000      -2.385  -3.431  -2.238  0.00  0.00     0.134 HD
BRANCH   4   6
ATOM      6  C7  ZIN AC000      -3.420  -2.140  -1.013  0.00  0.00     0.162 C 
ATOM      7  C9  ZIN AC000      -3.695  -2.457   0.459  0.00  0.00     0.037 C 
BRANCH   6   8
ATOM      8  C5  ZIN AC000      -2.149  -1.338  -1.124  0.00  0.00     0.277 C 
ATOM      9  O6  ZIN AC000      -1.218  -1.766  -1.765  0.00  0.00    -0.263 OA
BRANCH   8  10
ATOM     10  O4  ZIN AC000      -2.051  -0.147  -0.512  0.00  0.00    -0.316 OA
BRANCH  10  11
ATOM     11  C2  ZIN AC000      -0.797   0.570  -0.662  0.00  0.00     0.123 C 
ATOM     12  C1  ZIN AC000      -1.061   2.076  -0.600  0.00  0.00     0.040 C 
ATOM     13  C3  ZIN AC000       0.157   0.172   0.466  0.00  0.00     0.040 C 
ENDBRANCH  10  11
ENDBRANCH   8  10
ENDBRANCH   6   8
ENDBRANCH   4   6
ENDBRANCH   2   4
BRANCH   2  14
ATOM     14  O34 ZIN AC000      -5.946  -3.497  -2.066  0.00  0.00    -0.260 OA
BRANCH  14  15
ATOM     15  C35 ZIN AC000      -7.037  -3.668  -2.858  0.00  0.00     0.080 A 
ATOM     16  C40 ZIN AC000      -7.622  -4.920  -2.974  0.00  0.00     0.037 A 
ATOM     17  C39 ZIN AC000      -8.734  -5.090  -3.775  0.00  0.00     0.003 A 
ATOM     18  C38 ZIN AC000      -9.258  -4.016  -4.470  0.00  0.00     0.000 A 
ATOM     19  C37 ZIN AC000      -8.673  -2.768  -4.361  0.00  0.00     0.003 A 
ATOM     20  C36 ZIN AC000      -7.564  -2.591  -3.557  0.00  0.00     0.037 A 
ENDBRANCH  14  15
ENDBRANCH   2  14
ENDBRANCH   1   2
BRANCH   1  21
ATOM     21  C14 ZIN AC000      -3.522  -2.442  -5.037  0.00  0.00     0.214 C 
BRANCH  21  22
ATOM     22  C15 ZIN AC000      -3.735  -1.209  -5.917  0.00  0.00     0.180 C 
ATOM     23  C31 ZIN AC000      -2.769  -1.235  -7.122  0.00  0.00     0.193 C 
ATOM     24  C28 ZIN AC000      -2.372   0.248  -7.315  0.00  0.00     0.172 C 
ATOM     25  C18 ZIN AC000      -3.148   0.992  -6.205  0.00  0.00     0.274 C 
ATOM     26  C29 ZIN AC000      -0.864   0.429  -7.129  0.00  0.00     0.059 C 
ATOM     27  F30 ZIN AC000      -2.767   0.702  -8.578  0.00  0.00    -0.236 F 
ATOM     28  O17 ZIN AC000      -3.392  -0.008  -5.192  0.00  0.00    -0.353 OA
BRANCH  23  29
ATOM     29  O33 ZIN AC000      -3.428  -1.732  -8.289  0.00  0.00    -0.389 OA
ATOM     30  H60 ZIN AC000      -3.699  -2.658  -8.223  0.00  0.00     0.210 HD
ENDBRANCH  23  29
BRANCH  25  31
ATOM     31  N20 ZIN AC000      -2.339   2.084  -5.659  0.00  0.00    -0.279 N 
ATOM     32  C26 ZIN AC000      -2.410   3.308  -6.214  0.00  0.00     0.331 A 
ATOM     33  N25 ZIN AC000      -1.681   4.331  -5.730  0.00  0.00    -0.275 N 
ATOM     34  O27 ZIN AC000      -3.150   3.494  -7.161  0.00  0.00    -0.246 OA
ATOM     35  C23 ZIN AC000      -0.856   4.140  -4.681  0.00  0.00     0.250 A 
ATOM     36  H56 ZIN AC000      -1.748   5.207  -6.139  0.00  0.00     0.173 HD
ATOM     37  C22 ZIN AC000      -0.768   2.857  -4.090  0.00  0.00     0.092 A 
ATOM     38  O24 ZIN AC000      -0.193   5.064  -4.245  0.00  0.00    -0.268 OA
ATOM     39  C21 ZIN AC000      -1.514   1.849  -4.593  0.00  0.00     0.104 A 
ENDBRANCH  25  31
ENDBRANCH  21  22
ENDBRANCH   1  21
TORSDOF 12
