REMARK  8 active torsions:
REMARK  status: ('A' for Active; 'I' for Inactive)
REMARK    1  A    between atoms: C2_2  and  C4_4 
REMARK    2  A    between atoms: C4_4  and  O5_5 
REMARK    3  A    between atoms: O5_5  and  C6_6 
REMARK    4  A    between atoms: C9_9  and  C10_10 
REMARK    5  A    between atoms: C10_10  and  N11_11 
REMARK       I    between atoms: N11_11  and  C12_12 
REMARK       I    between atoms: C12_12  and  N14_14 
REMARK    6  A    between atoms: N14_14  and  C15_15 
REMARK    7  A    between atoms: N14_14  and  C23_23 
REMARK    8  A    between atoms: C15_15  and  C16_16 
ROOT
ATOM      1  N11 ZIN AC000     -10.207  -2.002  -2.001  0.00  0.00    -0.339 N 
ATOM      2  C12 ZIN AC000      -9.680  -0.883  -1.467  0.00  0.00     0.319 C 
ATOM      3  O13 ZIN AC000      -8.475  -0.719  -1.464  0.00  0.00    -0.247 OA
ATOM      4  N14 ZIN AC000     -10.489   0.056  -0.936  0.00  0.00    -0.325 N 
ATOM      5  H45 ZIN AC000     -11.161  -2.167  -1.938  0.00  0.00     0.164 HD
ENDROOT
BRANCH   1   6
ATOM      6  C10 ZIN AC000      -9.339  -2.970  -2.676  0.00  0.00     0.162 C 
BRANCH   6   7
ATOM      7  C9  ZIN AC000     -10.168  -4.124  -3.179  0.00  0.00    -0.040 A 
ATOM      8  C8  ZIN AC000     -10.716  -4.078  -4.448  0.00  0.00     0.011 A 
ATOM      9  C7  ZIN AC000     -11.476  -5.134  -4.912  0.00  0.00     0.037 A 
ATOM     10  C6  ZIN AC000     -11.691  -6.240  -4.103  0.00  0.00     0.068 A 
ATOM     11  C31 ZIN AC000     -11.145  -6.281  -2.828  0.00  0.00     0.037 A 
ATOM     12  C30 ZIN AC000     -10.381  -5.225  -2.371  0.00  0.00     0.011 A 
BRANCH  10  13
ATOM     13  O5  ZIN AC000     -12.439  -7.280  -4.557  0.00  0.00    -0.351 OA
BRANCH  13  14
ATOM     14  C4  ZIN AC000     -12.969  -7.169  -5.880  0.00  0.00     0.179 C 
BRANCH  14  15
ATOM     15  C2  ZIN AC000     -13.777  -8.426  -6.212  0.00  0.00     0.002 C 
ATOM     16  C1  ZIN AC000     -14.997  -8.506  -5.292  0.00  0.00     0.011 C 
ATOM     17  C3  ZIN AC000     -14.240  -8.363  -7.669  0.00  0.00     0.011 C 
ENDBRANCH  14  15
ENDBRANCH  13  14
ENDBRANCH  10  13
ENDBRANCH   6   7
ENDBRANCH   1   6
BRANCH   4  18
ATOM     18  C15 ZIN AC000     -11.930  -0.190  -0.837  0.00  0.00     0.166 C 
BRANCH  18  19
ATOM     19  C16 ZIN AC000     -12.238  -0.843   0.486  0.00  0.00    -0.040 A 
ATOM     20  C22 ZIN AC000     -12.529  -0.064   1.590  0.00  0.00     0.012 A 
ATOM     21  C21 ZIN AC000     -12.817  -0.662   2.802  0.00  0.00     0.043 A 
ATOM     22  C19 ZIN AC000     -12.803  -2.042   2.913  0.00  0.00     0.116 A 
ATOM     23  C18 ZIN AC000     -12.506  -2.822   1.808  0.00  0.00     0.043 A 
ATOM     24  F20 ZIN AC000     -13.079  -2.628   4.099  0.00  0.00    -0.206 F 
ATOM     25  C17 ZIN AC000     -12.224  -2.221   0.595  0.00  0.00     0.012 A 
ENDBRANCH  18  19
ENDBRANCH   4  18
BRANCH   4  26
ATOM     26  C23 ZIN AC000      -9.927   1.321  -0.458  0.00  0.00     0.092 C 
ATOM     27  C29 ZIN AC000      -9.191   2.020  -1.605  0.00  0.00     0.055 C 
ATOM     28  C28 ZIN AC000      -8.555   3.311  -1.085  0.00  0.00     0.274 C 
ATOM     29  N26 ZIN AC000      -7.618   2.994   0.001  0.00  0.00     0.084 N 
ATOM     30  C25 ZIN AC000      -8.311   2.365   1.133  0.00  0.00     0.274 C 
ATOM     31  C27 ZIN AC000      -6.886   4.193   0.431  0.00  0.00     0.309 C 
ATOM     32  C24 ZIN AC000      -8.940   1.046   0.679  0.00  0.00     0.055 C 
ENDBRANCH   4  26
TORSDOF 8
