REMARK  3 active torsions:
REMARK  status: ('A' for Active; 'I' for Inactive)
REMARK    1  A    between atoms: C2_2  and  O4_4 
REMARK    2  A    between atoms: O4_4  and  C5_5 
REMARK    3  A    between atoms: C5_5  and  C8_7 
ROOT
ATOM      1  C5  <0> d          -0.118   1.461  -2.384  0.00  0.00     0.420 C 
ATOM      2  F7  <0> d           1.192   1.947  -2.458  0.00  0.00    -0.210 F 
ENDROOT
BRANCH   1   3
ATOM      3  O4  <0> d          -0.708   1.868  -1.148  0.00  0.00    -0.288 OA
BRANCH   3   4
ATOM      4  C2  <0> d          -0.017   1.395   0.010  0.00  0.00     0.502 C 
ATOM      5  F1  <0> d           0.002  -0.004   0.002  0.00  0.00    -0.184 F 
ATOM      6  F3  <0> d           1.296   1.879  -0.000  0.00  0.00    -0.184 F 
ENDBRANCH   3   4
ENDBRANCH   1   3
BRANCH   1   7
ATOM      7  C8  <0> d          -0.936   2.022  -3.549  0.00  0.00     0.442 C 
ATOM      8  F9  <0> d          -0.952   3.419  -3.478  0.00  0.00    -0.166 F 
ATOM      9  F10 <0> d          -0.358   1.624  -4.759  0.00  0.00    -0.166 F 
ATOM     10  F11 <0> d          -2.246   1.536  -3.475  0.00  0.00    -0.166 F 
ENDBRANCH   1   7
TORSDOF 3
