REMARK  5 active torsions:
REMARK  status: ('A' for Active; 'I' for Inactive)
REMARK    1  A    between atoms: C2_2  and  N3_3 
REMARK    2  A    between atoms: C2_2  and  C7_7 
REMARK    3  A    between atoms: C2_2  and  C15_15 
REMARK    4  A    between atoms: C7_7  and  C8_8 
REMARK    5  A    between atoms: C11_11  and  O12_12 
ROOT
ATOM      1  C1  ZIN AC000      -0.019   1.526   0.010  0.00  0.00     0.058 C 
ATOM      2  C2  ZIN AC000       0.002  -0.004   0.002  0.00  0.00     0.210 C 
ENDROOT
BRANCH   2   3
ATOM      3  N3  ZIN AC000       0.713  -0.491   1.192  0.00  0.00    -0.060 N 
ATOM      4  H4  ZIN AC000       0.240  -0.165   2.022  0.00  0.00     0.275 HD
ATOM      5  H5  ZIN AC000       0.726  -1.500   1.187  0.00  0.00     0.275 HD
ATOM      6  H6  ZIN AC000       1.659  -0.141   1.185  0.00  0.00     0.275 HD
ENDBRANCH   2   3
BRANCH   2   7
ATOM      7  C7  ZIN AC000       0.718  -0.497  -1.257  0.00  0.00     0.088 C 
BRANCH   7   8
ATOM      8  C8  ZIN AC000       2.165  -0.079  -1.208  0.00  0.00    -0.055 A 
ATOM      9  C14 ZIN AC000       3.105  -0.911  -0.627  0.00  0.00     0.010 A 
ATOM     10  C13 ZIN AC000       4.433  -0.532  -0.586  0.00  0.00     0.037 A 
ATOM     11  C11 ZIN AC000       4.822   0.688  -1.118  0.00  0.00     0.065 A 
ATOM     12  C10 ZIN AC000       3.876   1.523  -1.696  0.00  0.00     0.037 A 
ATOM     13  C9  ZIN AC000       2.550   1.138  -1.739  0.00  0.00     0.010 A 
BRANCH  11  14
ATOM     14  O12 ZIN AC000       6.126   1.065  -1.074  0.00  0.00    -0.361 OA
ATOM     15  H25 ZIN AC000       6.366   1.560  -0.278  0.00  0.00     0.217 HD
ENDBRANCH  11  14
ENDBRANCH   7   8
ENDBRANCH   2   7
BRANCH   2  16
ATOM     16  C15 ZIN AC000      -1.412  -0.526   0.013  0.00  0.00     0.210 C 
ATOM     17  O16 ZIN AC000      -2.175  -0.236  -0.893  0.00  0.00    -0.646 OA
ATOM     18  O17 ZIN AC000      -1.792  -1.237   0.927  0.00  0.00    -0.646 OA
ENDBRANCH   2  16
TORSDOF 5
