REMARK  3 active torsions:
REMARK  status: ('A' for Active; 'I' for Inactive)
REMARK    1  A    between atoms: N1_1  and  C5_5 
REMARK    2  A    between atoms: C5_5  and  C6_6 
REMARK    3  A    between atoms: C6_6  and  S7_7 
ROOT
ATOM      1  C5  <0> d          -0.699   1.479   1.216  0.00  0.00     0.247 C 
ENDROOT
BRANCH   1   2
ATOM      2  N1  <0> d          -0.012   1.005   0.008  0.00  0.00    -0.078 N 
ATOM      3  H2  <0> d           0.002  -0.004   0.002  0.00  0.00     0.274 HD
ATOM      4  H3  <0> d           0.935   1.354   0.000  0.00  0.00     0.274 HD
ATOM      5  H4  <0> d          -0.500   1.339  -0.810  0.00  0.00     0.274 HD
ENDBRANCH   1   2
BRANCH   1   6
ATOM      6  C6  <0> d           0.041   0.972   2.456  0.00  0.00     0.192 C 
BRANCH   6   7
ATOM      7  S7  <0> d          -0.808   1.557   3.948  0.00  0.00     0.103 S 
ATOM      8  O8  <0> d          -0.093   1.067   5.117  0.00  0.00    -0.595 OA
ATOM      9  O9  <0> d          -0.820   3.011   3.942  0.00  0.00    -0.595 OA
ATOM     10  O10 <0> d          -2.170   1.046   3.944  0.00  0.00    -0.595 OA
ENDBRANCH   6   7
ENDBRANCH   1   6
TORSDOF 3
