REMARK  0 active torsions:
REMARK  status: ('A' for Active; 'I' for Inactive)
ROOT
ATOM      1  C1  <0> d          -0.019   1.526   0.010  0.00  0.00     0.016 C 
ATOM      2  C2  <0> d           0.002  -0.004   0.002  0.00  0.00    -0.029 C 
ATOM      3  C3  <0> d          -1.403  -0.589  -0.156  0.00  0.00     0.016 C 
ATOM      4  C4  <0> d           1.004  -0.575  -1.063  0.00  0.00     0.001 C 
ATOM      5  C6  <0> d           2.351   0.004  -0.529  0.00  0.00     0.007 C 
ATOM      6  C7  <0> d           2.191  -0.001   1.008  0.00  0.00     0.018 C 
ATOM      7  C8  <0> d           0.749  -0.591   1.251  0.00  0.00     0.024 C 
ATOM      8  C9  <0> d           0.123  -0.285   2.613  0.00  0.00     0.024 C 
ATOM      9  C10 <0> d           0.871  -2.074   0.873  0.00  0.00     0.136 C 
ATOM     10  O11 <0> d           0.839  -3.024   1.617  0.00  0.00    -0.297 OA
ATOM     11  C12 <0> d           1.018  -2.079  -0.652  0.00  0.00     0.084 C 
ENDROOT
TORSDOF 0
