REMARK  8 active torsions:
REMARK  status: ('A' for Active; 'I' for Inactive)
REMARK    1  A    between atoms: C5_5  and  O6_6 
REMARK    2  A    between atoms: C7_7  and  C8_8 
REMARK    3  A    between atoms: C8_8  and  C10_9 
REMARK    4  A    between atoms: C8_8  and  C20_19 
REMARK    5  A    between atoms: C10_9  and  C11_10 
REMARK    6  A    between atoms: C11_10  and  N12_11 
REMARK    7  A    between atoms: N12_11  and  C14_13 
REMARK    8  A    between atoms: N12_11  and  C17_16 
ROOT
ATOM      1  C8  ZIN AC000       1.286  -3.883   3.101  0.00  0.00     0.056 C 
ENDROOT
BRANCH   1   2
ATOM      2  C7  ZIN AC000       2.000  -2.874   2.239  0.00  0.00    -0.016 A 
ATOM      3  C5  ZIN AC000       2.542  -3.261   1.022  0.00  0.00     0.072 A 
ATOM      4  C4  ZIN AC000       3.199  -2.329   0.231  0.00  0.00     0.037 A 
ATOM      5  C3  ZIN AC000       3.311  -1.020   0.656  0.00  0.00     0.009 A 
ATOM      6  C2  ZIN AC000       2.769  -0.637   1.869  0.00  0.00    -0.061 A 
ATOM      7  C1  ZIN AC000       2.893   0.792   2.330  0.00  0.00     0.048 C 
ATOM      8  C26 ZIN AC000       2.119  -1.564   2.662  0.00  0.00     0.017 A 
BRANCH   3   9
ATOM      9  O6  ZIN AC000       2.432  -4.550   0.606  0.00  0.00    -0.360 OA
ATOM     10  H32 ZIN AC000       3.161  -5.118   0.888  0.00  0.00     0.217 HD
ENDBRANCH   3   9
ENDBRANCH   1   2
BRANCH   1  11
ATOM     11  C10 ZIN AC000      -0.123  -3.377   3.418  0.00  0.00     0.042 C 
BRANCH  11  12
ATOM     12  C11 ZIN AC000      -0.890  -4.454   4.188  0.00  0.00     0.237 C 
BRANCH  12  13
ATOM     13  N12 ZIN AC000      -2.269  -4.003   4.418  0.00  0.00    -0.064 N 
ATOM     14  H13 ZIN AC000      -2.682  -3.722   3.541  0.00  0.00     0.280 HD
BRANCH  13  15
ATOM     15  C14 ZIN AC000      -3.053  -5.102   4.998  0.00  0.00     0.180 C 
ATOM     16  C15 ZIN AC000      -4.516  -4.671   5.129  0.00  0.00     0.039 C 
ATOM     17  C16 ZIN AC000      -2.963  -6.329   4.088  0.00  0.00     0.039 C 
ENDBRANCH  13  15
BRANCH  13  18
ATOM     18  C17 ZIN AC000      -2.264  -2.863   5.344  0.00  0.00     0.180 C 
ATOM     19  C18 ZIN AC000      -1.040  -2.955   6.259  0.00  0.00     0.039 C 
ATOM     20  C19 ZIN AC000      -2.207  -1.558   4.547  0.00  0.00     0.039 C 
ENDBRANCH  13  18
ENDBRANCH  12  13
ENDBRANCH  11  12
ENDBRANCH   1  11
BRANCH   1  21
ATOM     21  C20 ZIN AC000       2.051  -4.077   4.385  0.00  0.00    -0.050 A 
ATOM     22  C25 ZIN AC000       1.975  -3.126   5.385  0.00  0.00     0.008 A 
ATOM     23  C24 ZIN AC000       2.674  -3.306   6.564  0.00  0.00     0.001 A 
ATOM     24  C23 ZIN AC000       3.455  -4.433   6.740  0.00  0.00     0.000 A 
ATOM     25  C22 ZIN AC000       3.534  -5.382   5.738  0.00  0.00     0.001 A 
ATOM     26  C21 ZIN AC000       2.833  -5.204   4.560  0.00  0.00     0.008 A 
ENDBRANCH   1  21
TORSDOF 8
