REMARK  0 active torsions:
REMARK  status: ('A' for Active; 'I' for Inactive)
ROOT
ATOM      1  C1  <0> d          -0.018   1.461   0.010  0.00  0.00     0.163 C 
ATOM      2  N2  <0> d           0.002  -0.004   0.002  0.00  0.00    -0.287 N 
ATOM      3  C3  <0> d          -1.185  -0.700   0.004  0.00  0.00     0.147 A 
ATOM      4  C4  <0> d          -1.156  -2.089  -0.004  0.00  0.00     0.170 A 
ATOM      5  N5  <0> d          -2.440  -2.521   0.001  0.00  0.00    -0.234 NA
ATOM      6  C6  <0> d          -3.235  -1.491   0.010  0.00  0.00     0.209 A 
ATOM      7  N7  <0> d          -2.497  -0.344   0.013  0.00  0.00    -0.335 N 
ATOM      8  C8  <0> d           0.147  -2.756  -0.014  0.00  0.00     0.283 A 
ATOM      9  O9  <0> d           0.225  -3.971  -0.021  0.00  0.00    -0.265 OA
ATOM     10  N10 <0> d           1.262  -1.993  -0.015  0.00  0.00    -0.269 N 
ATOM     11  C11 <0> d           2.578  -2.637  -0.025  0.00  0.00     0.164 C 
ATOM     12  C12 <0> d           1.180  -0.652  -0.013  0.00  0.00     0.332 A 
ATOM     13  O13 <0> d           2.208  -0.002  -0.014  0.00  0.00    -0.246 OA
ATOM     14  H18 <0> d          -2.844   0.562   0.020  0.00  0.00     0.168 HD
ENDROOT
TORSDOF 0
