REMARK  10 active torsions:
REMARK  status: ('A' for Active; 'I' for Inactive)
REMARK    1  A    between atoms: C2_2  and  C3_3 
REMARK    2  A    between atoms: C3_3  and  C4_4 
REMARK    3  A    between atoms: C4_4  and  C5_5 
REMARK    4  A    between atoms: C5_5  and  C7_6 
REMARK    5  A    between atoms: C5_5  and  C9_8 
REMARK    6  A    between atoms: C9_8  and  O10_9 
REMARK    7  A    between atoms: O10_9  and  C11_10 
REMARK    8  A    between atoms: C11_10  and  C13_12 
REMARK    9  A    between atoms: C14_13  and  C15_14 
REMARK   10  A    between atoms: C18_17  and  O19_18 
ROOT
ATOM      1  C11 ZIN AC000      -4.533  -4.726  -0.653  0.00  0.00     0.282 C 
ATOM      2  O12 ZIN AC000      -3.550  -5.408  -0.875  0.00  0.00    -0.260 OA
ENDROOT
BRANCH   1   3
ATOM      3  O10 ZIN AC000      -4.444  -3.380  -0.697  0.00  0.00    -0.318 OA
BRANCH   3   4
ATOM      4  C9  ZIN AC000      -3.166  -2.824  -1.011  0.00  0.00     0.183 C 
BRANCH   4   5
ATOM      5  C5  ZIN AC000      -3.261  -1.297  -1.014  0.00  0.00     0.010 C 
BRANCH   5   6
ATOM      6  C4  ZIN AC000      -1.864  -0.699  -1.194  0.00  0.00     0.007 C 
BRANCH   6   7
ATOM      7  C3  ZIN AC000      -1.942   0.824  -1.074  0.00  0.00     0.000 C 
BRANCH   7   8
ATOM      8  C2  ZIN AC000      -0.545   1.421  -1.254  0.00  0.00    -0.005 C 
ATOM      9  C1  ZIN AC000      -0.622   2.945  -1.133  0.00  0.00     0.005 C 
ENDBRANCH   7   8
ENDBRANCH   6   7
ENDBRANCH   5   6
BRANCH   5  10
ATOM     10  C7  ZIN AC000      -4.162  -0.845  -2.166  0.00  0.00     0.002 C 
ATOM     11  C8  ZIN AC000      -5.601  -1.285  -1.891  0.00  0.00     0.005 C 
ENDBRANCH   5  10
ENDBRANCH   4   5
ENDBRANCH   3   4
ENDBRANCH   1   3
BRANCH   1  12
ATOM     12  C13 ZIN AC000      -5.771  -5.345  -0.348  0.00  0.00     0.083 C 
ATOM     13  C14 ZIN AC000      -5.829  -6.681  -0.155  0.00  0.00     0.017 C 
BRANCH  13  14
ATOM     14  C15 ZIN AC000      -4.592  -7.449   0.042  0.00  0.00    -0.036 A 
ATOM     15  C22 ZIN AC000      -4.401  -8.660  -0.634  0.00  0.00     0.014 A 
ATOM     16  C21 ZIN AC000      -3.238  -9.373  -0.450  0.00  0.00     0.037 A 
ATOM     17  C18 ZIN AC000      -2.259  -8.898   0.415  0.00  0.00     0.068 A 
ATOM     18  C17 ZIN AC000      -2.446  -7.699   1.094  0.00  0.00     0.037 A 
ATOM     19  C16 ZIN AC000      -3.602  -6.976   0.912  0.00  0.00     0.014 A 
BRANCH  17  20
ATOM     20  O19 ZIN AC000      -1.116  -9.608   0.598  0.00  0.00    -0.356 OA
ATOM     21  C20 ZIN AC000      -0.988 -10.831  -0.130  0.00  0.00     0.210 C 
ENDBRANCH  17  20
ENDBRANCH  13  14
ENDBRANCH   1  12
TORSDOF 10
