REMARK  2 active torsions:
REMARK  status: ('A' for Active; 'I' for Inactive)
REMARK    1  A    between atoms: N7_7  and  C8_8 
REMARK    2  A    between atoms: C8_8  and  C9_9 
ROOT
ATOM      1  C9  ZIN AC000      -1.412  -0.092   2.946  0.00  0.00     0.079 C 
ATOM      2  C11 ZIN AC000      -1.399   0.494   4.357  0.00  0.00     0.020 C 
ATOM      3  C12 ZIN AC000      -2.830   0.763   4.839  0.00  0.00     0.059 C 
ATOM      4  C13 ZIN AC000      -3.606  -0.529   4.745  0.00  0.00     0.026 A 
ATOM      5  C14 ZIN AC000      -3.269  -1.526   3.835  0.00  0.00     0.045 A 
ATOM      6  C15 ZIN AC000      -4.219  -2.607   4.037  0.00  0.00     0.007 A 
ATOM      7  C16 ZIN AC000      -4.384  -3.853   3.435  0.00  0.00     0.015 A 
ATOM      8  C17 ZIN AC000      -5.426  -4.639   3.897  0.00  0.00     0.001 A 
ATOM      9  C18 ZIN AC000      -6.268  -4.214   4.910  0.00  0.00     0.002 A 
ATOM     10  C19 ZIN AC000      -6.121  -2.980   5.521  0.00  0.00     0.030 A 
ATOM     11  C20 ZIN AC000      -5.080  -2.170   5.075  0.00  0.00     0.045 A 
ATOM     12  N21 ZIN AC000      -4.673  -0.919   5.462  0.00  0.00    -0.353 N 
ATOM     13  C22 ZIN AC000      -5.313  -0.120   6.510  0.00  0.00     0.156 C 
ATOM     14  C23 ZIN AC000      -2.186  -1.392   2.934  0.00  0.00     0.168 C 
ATOM     15  O24 ZIN AC000      -1.889  -2.290   2.172  0.00  0.00    -0.292 OA
ENDROOT
BRANCH   1  16
ATOM     16  C8  ZIN AC000       0.025  -0.353   2.491  0.00  0.00     0.142 C 
BRANCH  16  17
ATOM     17  N7  ZIN AC000       0.023  -0.797   1.095  0.00  0.00    -0.345 N 
ATOM     18  C2  ZIN AC000       0.002  -0.004   0.002  0.00  0.00     0.079 A 
ATOM     19  C1  ZIN AC000      -0.018   1.503   0.010  0.00  0.00     0.089 C 
ATOM     20  N3  ZIN AC000       0.008  -0.759  -1.063  0.00  0.00    -0.355 N 
ATOM     21  H4  ZIN AC000      -0.000  -0.438  -1.978  0.00  0.00     0.166 HD
ATOM     22  C5  ZIN AC000       0.028  -2.047  -0.691  0.00  0.00     0.106 A 
ATOM     23  C6  ZIN AC000       0.034  -2.093   0.655  0.00  0.00     0.109 A 
ENDBRANCH  16  17
ENDBRANCH   1  16
TORSDOF 2
