REMARK  3 active torsions:
REMARK  status: ('A' for Active; 'I' for Inactive)
REMARK    1  A    between atoms: C2_2  and  N3_3 
REMARK       I    between atoms: N3_3  and  C4_4 
REMARK    2  A    between atoms: N3_3  and  C7_7 
REMARK    3  A    between atoms: C11_11  and  C12_12 
ROOT
ATOM      1  C12 ZIN AC000       4.642  -2.347   3.510  0.00  0.00     0.072 A 
ATOM      2  C13 ZIN AC000       4.761  -1.618   4.678  0.00  0.00     0.052 A 
ATOM      3  C14 ZIN AC000       5.367  -2.208   5.787  0.00  0.00     0.121 A 
ATOM      4  N15 ZIN AC000       5.817  -3.443   5.719  0.00  0.00    -0.240 NA
ATOM      5  C16 ZIN AC000       5.710  -4.158   4.599  0.00  0.00     0.173 A 
ATOM      6  C17 ZIN AC000       6.101  -5.470   4.269  0.00  0.00     0.111 A 
ATOM      7  C18 ZIN AC000       6.755  -6.407   5.132  0.00  0.00     0.105 C 
ATOM      8  N19 ZIN AC000       7.274  -7.150   5.817  0.00  0.00    -0.191 NA
ATOM      9  C20 ZIN AC000       5.727  -5.686   2.931  0.00  0.00     0.166 A 
ATOM     10  N21 ZIN AC000       5.155  -4.602   2.475  0.00  0.00    -0.176 NA
ATOM     11  N22 ZIN AC000       5.120  -3.633   3.483  0.00  0.00    -0.214 N 
ENDROOT
BRANCH   1  12
ATOM     12  C11 ZIN AC000       4.006  -1.755   2.315  0.00  0.00    -0.005 A 
ATOM     13  C10 ZIN AC000       4.756  -1.539   1.156  0.00  0.00     0.014 A 
ATOM     14  C9  ZIN AC000       4.160  -0.986   0.042  0.00  0.00     0.003 A 
ATOM     15  C8  ZIN AC000       2.821  -0.643   0.067  0.00  0.00     0.030 A 
ATOM     16  C7  ZIN AC000       2.066  -0.854   1.214  0.00  0.00     0.038 A 
ATOM     17  C23 ZIN AC000       2.656  -1.404   2.341  0.00  0.00     0.043 A 
BRANCH  16  18
ATOM     18  N3  ZIN AC000       0.711  -0.506   1.233  0.00  0.00    -0.319 N 
ATOM     19  C4  ZIN AC000       0.019  -0.553   2.389  0.00  0.00     0.220 C 
ATOM     20  C5  ZIN AC000      -1.468  -0.312   2.388  0.00  0.00     0.117 C 
ATOM     21  O6  ZIN AC000       0.594  -0.789   3.431  0.00  0.00    -0.273 OA
BRANCH  18  22
ATOM     22  C2  ZIN AC000       0.043  -0.090  -0.003  0.00  0.00     0.128 C 
ATOM     23  C1  ZIN AC000       0.052   1.436  -0.099  0.00  0.00     0.027 C 
ENDBRANCH  18  22
ENDBRANCH  16  18
ENDBRANCH   1  12
TORSDOF 3
