REMARK  5 active torsions:
REMARK  status: ('A' for Active; 'I' for Inactive)
REMARK    1  A    between atoms: N1_1  and  C5_5 
REMARK    2  A    between atoms: C5_5  and  C7_6 
REMARK    3  A    between atoms: C5_5  and  C15_14 
REMARK    4  A    between atoms: C7_6  and  C8_7 
REMARK    5  A    between atoms: C11_10  and  O12_11 
ROOT
ATOM      1  C7  <0> d          -2.135   0.949   1.227  0.00  0.00     0.082 C 
ENDROOT
BRANCH   1   2
ATOM      2  C5  <0> d          -0.699   1.479   1.216  0.00  0.00     0.287 C 
BRANCH   2   3
ATOM      3  N1  <0> d          -0.012   1.005   0.008  0.00  0.00    -0.065 N 
ATOM      4  H2  <0> d           0.002  -0.004   0.002  0.00  0.00     0.275 HD
ATOM      5  H3  <0> d           0.935   1.354   0.000  0.00  0.00     0.275 HD
ATOM      6  H4  <0> d          -0.500   1.339  -0.810  0.00  0.00     0.275 HD
ENDBRANCH   2   3
BRANCH   2   7
ATOM      7  C15 <0> d           0.030   0.979   2.437  0.00  0.00     0.204 C 
ATOM      8  O16 <0> d          -0.266   1.406   3.540  0.00  0.00    -0.646 OA
ATOM      9  O17 <0> d           0.915   0.149   2.322  0.00  0.00    -0.646 OA
ENDBRANCH   2   7
ENDBRANCH   1   2
BRANCH   1  10
ATOM     10  C8  <0> d          -2.899   1.546   0.074  0.00  0.00    -0.056 A 
ATOM     11  C14 <0> d          -2.916   0.902  -1.150  0.00  0.00     0.010 A 
ATOM     12  C13 <0> d          -3.620   1.445  -2.208  0.00  0.00     0.037 A 
ATOM     13  C11 <0> d          -4.302   2.642  -2.044  0.00  0.00     0.065 A 
ATOM     14  C10 <0> d          -4.279   3.288  -0.817  0.00  0.00     0.037 A 
ATOM     15  C9  <0> d          -3.577   2.739   0.239  0.00  0.00     0.010 A 
BRANCH  13  16
ATOM     16  O12 <0> d          -4.991   3.180  -3.084  0.00  0.00    -0.361 OA
ATOM     17  H22 <0> d          -4.468   3.781  -3.633  0.00  0.00     0.217 HD
ENDBRANCH  13  16
ENDBRANCH   1  10
TORSDOF 5
