REMARK  0 active torsions:
REMARK  status: ('A' for Active; 'I' for Inactive)
ROOT
ATOM      1  C1  <0> d          -0.019   1.526   0.010  0.00  0.00     0.016 C 
ATOM      2  C2  <0> d           0.002  -0.004   0.002  0.00  0.00     0.041 C 
ATOM      3  C4  <0> d           0.731  -0.504  -1.249  0.00  0.00     0.241 C 
ATOM      4  N5  <0> d           0.290  -1.839  -1.611  0.00  0.00    -0.074 N 
ATOM      5  H6  <0> d          -0.718  -1.840  -1.650  0.00  0.00     0.277 HD
ATOM      6  H7  <0> d           0.641  -2.049  -2.533  0.00  0.00     0.277 HD
ATOM      7  C8  <0> d           0.711  -2.903  -0.716  0.00  0.00     0.237 C 
ATOM      8  C9  <0> d          -0.022  -2.816   0.626  0.00  0.00     0.066 C 
ATOM      9  C10 <0> d           0.736  -1.853   1.518  0.00  0.00    -0.050 A 
ATOM     10  C11 <0> d           1.410  -2.328   2.626  0.00  0.00     0.009 A 
ATOM     11  C12 <0> d           2.101  -1.444   3.437  0.00  0.00     0.024 A 
ATOM     12  C13 <0> d           2.114  -0.094   3.136  0.00  0.00     0.034 A 
ATOM     13 Cl14 <0> d           2.982   1.012   4.154  0.00  0.00    -0.084 Cl
ATOM     14  C15 <0> d           1.436   0.376   2.024  0.00  0.00     0.031 A 
ATOM     15  C16 <0> d           0.747  -0.512   1.220  0.00  0.00    -0.045 A 
ENDROOT
TORSDOF 0
