REMARK  3 active torsions:
REMARK  status: ('A' for Active; 'I' for Inactive)
REMARK    1  A    between atoms: N5_5  and  C7_7 
REMARK    2  A    between atoms: C7_7  and  C9_8 
REMARK    3  A    between atoms: C7_7  and  C15_14 
ROOT
ATOM      1  C7  <0> d          -0.562  -4.056   0.998  0.00  0.00     0.254 C 
ENDROOT
BRANCH   1   2
ATOM      2  N5  <0> d          -0.611  -2.589   1.053  0.00  0.00    -0.055 N 
ATOM      3  C4  <0> d          -1.293  -2.076  -0.143  0.00  0.00     0.266 C 
ATOM      4  C3  <0> d          -1.361  -0.549  -0.076  0.00  0.00     0.299 C 
ATOM      5  N2  <0> d           0.002  -0.004   0.002  0.00  0.00     0.087 N 
ATOM      6  C1  <0> d          -0.018   1.465   0.010  0.00  0.00     0.310 C 
ATOM      7  C23 <0> d           0.707  -0.528   1.181  0.00  0.00     0.299 C 
ATOM      8  C22 <0> d           0.757  -2.055   1.104  0.00  0.00     0.266 C 
ATOM      9  H6  <0> d          -1.115  -2.300   1.878  0.00  0.00     0.281 HD
ENDBRANCH   1   2
BRANCH   1  10
ATOM     10  C9  <0> d           0.138  -4.582   2.224  0.00  0.00    -0.023 A 
ATOM     11  C14 <0> d           1.015  -5.645   2.117  0.00  0.00     0.009 A 
ATOM     12  C13 <0> d           1.661  -6.124   3.241  0.00  0.00     0.001 A 
ATOM     13  C12 <0> d           1.423  -5.547   4.474  0.00  0.00     0.000 A 
ATOM     14  C11 <0> d           0.542  -4.487   4.582  0.00  0.00     0.001 A 
ATOM     15  C10 <0> d          -0.101  -4.005   3.457  0.00  0.00     0.009 A 
ENDBRANCH   1  10
BRANCH   1  16
ATOM     16  C15 <0> d          -1.965  -4.604   0.946  0.00  0.00    -0.023 A 
ATOM     17  C21 <0> d          -2.257  -5.679   0.128  0.00  0.00     0.011 A 
ATOM     18  C20 <0> d          -3.543  -6.185   0.085  0.00  0.00     0.024 A 
ATOM     19  C18 <0> d          -4.539  -5.609   0.853  0.00  0.00     0.034 A 
ATOM     20  C17 <0> d          -4.247  -4.529   1.667  0.00  0.00     0.024 A 
ATOM     21 Cl19 <0> d          -6.155  -6.239   0.793  0.00  0.00    -0.084 Cl
ATOM     22  C16 <0> d          -2.960  -4.027   1.713  0.00  0.00     0.011 A 
ENDBRANCH   1  16
TORSDOF 3
