REMARK  7 active torsions:
REMARK  status: ('A' for Active; 'I' for Inactive)
REMARK    1  A    between atoms: C5_5  and  S6_6 
REMARK    2  A    between atoms: S6_6  and  C7_7 
REMARK    3  A    between atoms: C7_7  and  C8_8 
REMARK    4  A    between atoms: C9_9  and  C10_10 
REMARK    5  A    between atoms: C16_16  and  N18_17 
REMARK       I    between atoms: N18_17  and  C19_18 
REMARK    6  A    between atoms: C19_18  and  C21_20 
REMARK    7  A    between atoms: C21_20  and  N22_21 
ROOT
ATOM      1  C8  <0> d           0.090  -6.441  -0.602  0.00  0.00    -0.027 C 
ATOM      2  C9  <0> d          -1.076  -7.060  -0.733  0.00  0.00     0.119 C 
ATOM      3  N13 <0> d          -1.148  -8.455  -0.628  0.00  0.00    -0.293 N 
ATOM      4  C14 <0> d          -1.871  -9.506  -0.994  0.00  0.00     0.251 C 
ATOM      5  O15 <0> d          -3.020  -9.613  -1.369  0.00  0.00    -0.271 OA
ATOM      6  C16 <0> d          -0.774 -10.524  -0.785  0.00  0.00     0.210 C 
ATOM      7  C27 <0> d          -0.129  -9.369  -0.041  0.00  0.00     0.187 C 
ATOM      8  S29 <0> d           1.492  -8.832  -0.681  0.00  0.00    -0.136 SA
ATOM      9  C30 <0> d           1.423  -7.045  -0.299  0.00  0.00     0.113 C 
ENDROOT
BRANCH   6  10
ATOM     10  N18 <0> d          -0.076 -10.922  -2.010  0.00  0.00    -0.344 N 
ATOM     11  C19 <0> d          -0.330 -12.120  -2.571  0.00  0.00     0.238 C 
ATOM     12  O20 <0> d          -1.137 -12.869  -2.063  0.00  0.00    -0.272 OA
ATOM     13  H37 <0> d           0.570 -10.323  -2.416  0.00  0.00     0.163 HD
BRANCH  11  14
ATOM     14  C21 <0> d           0.389 -12.530  -3.831  0.00  0.00     0.256 C 
BRANCH  14  15
ATOM     15  N22 <0> d          -0.060 -13.864  -4.237  0.00  0.00    -0.233 N 
ATOM     16  N26 <0> d          -0.041 -14.932  -3.514  0.00  0.00    -0.044 NA
ATOM     17  N25 <0> d          -0.515 -15.910  -4.205  0.00  0.00    -0.024 NA
ATOM     18  N24 <0> d          -0.835 -15.488  -5.379  0.00  0.00    -0.122 NA
ATOM     19  C23 <0> d          -0.563 -14.207  -5.437  0.00  0.00     0.256 A 
ENDBRANCH  14  15
ENDBRANCH  11  14
ENDBRANCH   6  10
BRANCH   2  20
ATOM     20  C10 <0> d          -2.297  -6.279  -0.991  0.00  0.00     0.227 C 
ATOM     21  O11 <0> d          -2.689  -6.116  -2.138  0.00  0.00    -0.643 OA
ATOM     22  O12 <0> d          -2.921  -5.793  -0.057  0.00  0.00    -0.643 OA
ENDBRANCH   2  20
BRANCH   1  23
ATOM     23  C7  <0> d           0.069  -4.945  -0.787  0.00  0.00     0.119 C 
BRANCH  23  24
ATOM     24  S6  <0> d           0.126  -4.137   0.831  0.00  0.00    -0.097 SA
BRANCH  24  25
ATOM     25  C5  <0> d           0.090  -2.448   0.331  0.00  0.00     0.159 A 
ATOM     26  N4  <0> d           0.038  -2.010  -0.895  0.00  0.00    -0.135 NA
ATOM     27  N3  <0> d           0.019  -0.761  -1.070  0.00  0.00    -0.146 NA
ATOM     28  C2  <0> d           0.053  -0.002  -0.023  0.00  0.00     0.096 A 
ATOM     29  C1  <0> d           0.040   1.505  -0.020  0.00  0.00     0.081 C 
ATOM     30  S31 <0> d           0.126  -1.044   1.399  0.00  0.00    -0.045 SA
ENDBRANCH  24  25
ENDBRANCH  23  24
ENDBRANCH   1  23
TORSDOF 7
