REMARK  9 active torsions:
REMARK  status: ('A' for Active; 'I' for Inactive)
REMARK    1  A    between atoms: C2_2  and  C3_3 
REMARK    2  A    between atoms: C3_3  and  O5_5 
REMARK    3  A    between atoms: O5_5  and  C6_6 
REMARK    4  A    between atoms: C6_6  and  C7_7 
REMARK    5  A    between atoms: C6_6  and  C14_14 
REMARK    6  A    between atoms: C6_6  and  C20_20 
REMARK    7  A    between atoms: C7_7  and  C8_8 
REMARK    8  A    between atoms: C20_20  and  C23_22 
REMARK    9  A    between atoms: C23_22  and  N24_23 
ROOT
ATOM      1  C6  ZIN AC000      -2.762  -2.822   0.015  0.00  0.00     0.106 C 
ENDROOT
BRANCH   1   2
ATOM      2  O5  ZIN AC000      -1.612  -3.676  -0.226  0.00  0.00    -0.304 OA
BRANCH   2   3
ATOM      3  C3  ZIN AC000      -0.621  -3.166  -0.974  0.00  0.00     0.259 C 
ATOM      4  O4  ZIN AC000      -0.766  -2.099  -1.523  0.00  0.00    -0.265 OA
BRANCH   3   5
ATOM      5  C2  ZIN AC000       0.672  -3.924  -1.129  0.00  0.00     0.106 C 
ATOM      6  C1  ZIN AC000       1.625  -3.129  -2.024  0.00  0.00     0.015 C 
ENDBRANCH   3   5
ENDBRANCH   2   3
ENDBRANCH   1   2
BRANCH   1   7
ATOM      7  C7  ZIN AC000      -3.869  -3.636   0.688  0.00  0.00     0.082 C 
BRANCH   7   8
ATOM      8  C8  ZIN AC000      -3.321  -4.304   1.923  0.00  0.00    -0.055 A 
ATOM      9  C13 ZIN AC000      -3.716  -3.871   3.176  0.00  0.00     0.007 A 
ATOM     10  C12 ZIN AC000      -3.217  -4.487   4.308  0.00  0.00     0.001 A 
ATOM     11  C11 ZIN AC000      -2.317  -5.529   4.189  0.00  0.00     0.000 A 
ATOM     12  C10 ZIN AC000      -1.918  -5.958   2.937  0.00  0.00     0.001 A 
ATOM     13  C9  ZIN AC000      -2.420  -5.346   1.804  0.00  0.00     0.007 A 
ENDBRANCH   7   8
ENDBRANCH   1   7
BRANCH   1  14
ATOM     14  C14 ZIN AC000      -3.266  -2.276  -1.296  0.00  0.00    -0.022 A 
ATOM     15  C19 ZIN AC000      -3.112  -3.011  -2.456  0.00  0.00     0.010 A 
ATOM     16  C18 ZIN AC000      -3.579  -2.512  -3.658  0.00  0.00     0.001 A 
ATOM     17  C17 ZIN AC000      -4.191  -1.273  -3.700  0.00  0.00     0.000 A 
ATOM     18  C16 ZIN AC000      -4.340  -0.536  -2.541  0.00  0.00     0.001 A 
ATOM     19  C15 ZIN AC000      -3.877  -1.037  -1.339  0.00  0.00     0.010 A 
ENDBRANCH   1  14
BRANCH   1  20
ATOM     20  C20 ZIN AC000      -2.354  -1.664   0.928  0.00  0.00     0.048 C 
ATOM     21  C22 ZIN AC000      -1.524  -0.655   0.131  0.00  0.00     0.015 C 
BRANCH  20  22
ATOM     22  C23 ZIN AC000      -1.521  -2.201   2.093  0.00  0.00     0.241 C 
BRANCH  22  23
ATOM     23  N24 ZIN AC000      -1.855  -1.460   3.317  0.00  0.00    -0.078 N 
ATOM     24  H25 ZIN AC000      -2.848  -1.520   3.486  0.00  0.00     0.278 HD
ATOM     25  C26 ZIN AC000      -1.129  -2.040   4.454  0.00  0.00     0.269 C 
ATOM     26  C27 ZIN AC000      -1.470  -0.051   3.156  0.00  0.00     0.269 C 
ENDBRANCH  22  23
ENDBRANCH  20  22
ENDBRANCH   1  20
TORSDOF 9
