REMARK  8 active torsions:
REMARK  status: ('A' for Active; 'I' for Inactive)
REMARK    1  A    between atoms: C2_2  and  C3_3 
REMARK    2  A    between atoms: C3_3  and  C4_4 
REMARK    3  A    between atoms: C3_3  and  C6_6 
REMARK    4  A    between atoms: C6_6  and  N8_7 
REMARK    5  A    between atoms: C6_6  and  C12_11 
REMARK       I    between atoms: N8_7  and  C9_8 
REMARK    6  A    between atoms: C14_12  and  N16_13 
REMARK       I    between atoms: N16_13  and  C17_14 
REMARK       I    between atoms: C17_14  and  N18_15 
REMARK    7  A    between atoms: C23_20  and  C25_21 
REMARK    8  A    between atoms: C28_24  and  O30_25 
ROOT
ATOM      1  C12 ZIN AC000      -2.922  -2.516  -0.428  0.00  0.00     0.061 C 
ATOM      2  C14 ZIN AC000      -3.058  -4.059  -0.388  0.00  0.00     0.108 C 
ATOM      3  C22 ZIN AC000      -4.553  -4.261  -0.041  0.00  0.00     0.044 C 
ATOM      4  C23 ZIN AC000      -4.863  -3.137   0.969  0.00  0.00     0.118 C 
ATOM      5  C28 ZIN AC000      -3.826  -2.024   0.721  0.00  0.00     0.140 C 
ENDROOT
BRANCH   1   6
ATOM      6  C6  ZIN AC000      -1.470  -2.100  -0.182  0.00  0.00     0.097 C 
BRANCH   6   7
ATOM      7  C3  ZIN AC000      -1.314  -0.604  -0.465  0.00  0.00     0.008 C 
BRANCH   7   8
ATOM      8  C2  ZIN AC000      -2.277   0.186   0.424  0.00  0.00     0.002 C 
ATOM      9  C1  ZIN AC000      -2.111   1.682   0.152  0.00  0.00     0.005 C 
ENDBRANCH   7   8
BRANCH   7  10
ATOM     10  C4  ZIN AC000       0.124  -0.176  -0.166  0.00  0.00     0.002 C 
ATOM     11  C5  ZIN AC000       1.071  -0.835  -1.170  0.00  0.00     0.005 C 
ENDBRANCH   7  10
ENDBRANCH   6   7
BRANCH   6  12
ATOM     12  N8  ZIN AC000      -0.588  -2.859  -1.071  0.00  0.00    -0.356 N 
ATOM     13  C9  ZIN AC000      -0.744  -2.777  -2.407  0.00  0.00     0.213 C 
ATOM     14  C10 ZIN AC000       0.089  -3.642  -3.318  0.00  0.00     0.117 C 
ATOM     15  O11 ZIN AC000      -1.556  -2.008  -2.877  0.00  0.00    -0.274 OA
ATOM     16  H42 ZIN AC000       0.110  -3.421  -0.698  0.00  0.00     0.162 HD
ENDBRANCH   6  12
ENDBRANCH   1   6
BRANCH   5  17
ATOM     17  O30 ZIN AC000      -3.047  -1.810   1.899  0.00  0.00    -0.394 OA
ATOM     18  H51 ZIN AC000      -3.562  -1.522   2.665  0.00  0.00     0.210 HD
ENDBRANCH   5  17
BRANCH   2  19
ATOM     19  N16 ZIN AC000      -2.740  -4.641  -1.694  0.00  0.00    -0.222 N 
ATOM     20  C17 ZIN AC000      -2.300  -5.934  -1.778  0.00  0.00     0.665 C 
ATOM     21  N18 ZIN AC000      -2.159  -6.662  -0.672  0.00  0.00    -0.235 N 
ATOM     22  N19 ZIN AC000      -2.011  -6.463  -2.966  0.00  0.00    -0.235 N 
ATOM     23  H47 ZIN AC000      -2.369  -6.276   0.193  0.00  0.00     0.174 HD
ATOM     24  H48 ZIN AC000      -1.847  -7.579  -0.731  0.00  0.00     0.174 HD
ATOM     25  H20 ZIN AC000      -2.114  -5.933  -3.771  0.00  0.00     0.174 HD
ATOM     26  H21 ZIN AC000      -1.699  -7.380  -3.025  0.00  0.00     0.174 HD
ATOM     27  H46 ZIN AC000      -2.842  -4.111  -2.500  0.00  0.00     0.178 HD
ENDBRANCH   2  19
BRANCH   4  28
ATOM     28  C25 ZIN AC000      -6.254  -2.605   0.738  0.00  0.00     0.179 C 
ATOM     29  O26 ZIN AC000      -7.217  -3.343   0.860  0.00  0.00    -0.648 OA
ATOM     30  O27 ZIN AC000      -6.417  -1.437   0.430  0.00  0.00    -0.648 OA
ENDBRANCH   4  28
TORSDOF 8
