REMARK  3 active torsions:
REMARK  status: ('A' for Active; 'I' for Inactive)
REMARK    1  A    between atoms: N2_2  and  C3_3 
REMARK    2  A    between atoms: C6_6  and  C7_7 
REMARK    3  A    between atoms: C12_12  and  O13_13 
ROOT
ATOM      1  C7  <0> d          -4.849  -2.891   0.033  0.00  0.00     0.109 A 
ATOM      2  N8  <0> d          -6.024  -2.357   0.037  0.00  0.00    -0.240 NA
ATOM      3  C9  <0> d          -7.089  -3.178   0.044  0.00  0.00     0.075 A 
ATOM      4  C10 <0> d          -8.462  -2.844   0.050  0.00  0.00     0.036 A 
ATOM      5  C11 <0> d          -9.412  -3.818   0.058  0.00  0.00     0.039 A 
ATOM      6  C12 <0> d          -9.052  -5.163   0.061  0.00  0.00     0.067 A 
ATOM      7  C14 <0> d          -7.717  -5.518   0.055  0.00  0.00     0.057 A 
ATOM      8  C15 <0> d          -6.733  -4.532   0.047  0.00  0.00     0.038 A 
ATOM      9  S16 <0> d          -4.975  -4.645   0.032  0.00  0.00    -0.067 SA
ENDROOT
BRANCH   1  10
ATOM     10  C6  <0> d          -3.579  -2.136   0.025  0.00  0.00     0.003 A 
ATOM     11  C5  <0> d          -3.595  -0.741   0.027  0.00  0.00     0.017 A 
ATOM     12  C4  <0> d          -2.409  -0.038   0.019  0.00  0.00     0.033 A 
ATOM     13  C3  <0> d          -1.197  -0.718   0.010  0.00  0.00     0.066 A 
ATOM     14  C18 <0> d          -1.176  -2.111   0.002  0.00  0.00     0.143 A 
ATOM     15  C17 <0> d          -2.360  -2.818   0.015  0.00  0.00     0.059 A 
ATOM     16  F19 <0> d           0.004  -2.769  -0.008  0.00  0.00    -0.204 F 
BRANCH  13  17
ATOM     17  N2  <0> d           0.002  -0.004   0.002  0.00  0.00    -0.392 N 
ATOM     18  C1  <0> d          -0.018   1.461   0.010  0.00  0.00     0.146 C 
ATOM     19  H23 <0> d           0.849  -0.478  -0.009  0.00  0.00     0.159 HD
ENDBRANCH  13  17
ENDBRANCH   1  10
BRANCH   6  20
ATOM     20  O13 <0> d         -10.012  -6.125   0.069  0.00  0.00    -0.361 OA
ATOM     21  H28 <0> d         -10.295  -6.406  -0.813  0.00  0.00     0.217 HD
ENDBRANCH   6  20
TORSDOF 3
