REMARK  2 active torsions:
REMARK  status: ('A' for Active; 'I' for Inactive)
REMARK    1  A    between atoms: C8_8  and  N9_9 
REMARK       I    between atoms: N9_9  and  C10_10 
REMARK    2  A    between atoms: C10_10  and  C12_12 
ROOT
ATOM      1  N9  <0> d           0.163  -0.264   2.564  0.00  0.00    -0.324 N 
ATOM      2  C10 <0> d           0.180   1.076   2.708  0.00  0.00     0.253 C 
ATOM      3  O11 <0> d           0.242   1.790   1.730  0.00  0.00    -0.271 OA
ATOM      4  H30 <0> d           0.194  -0.836   3.346  0.00  0.00     0.169 HD
ENDROOT
BRANCH   1   5
ATOM      5  C8  <0> d           0.100  -0.829   1.286  0.00  0.00     0.046 A 
ATOM      6  C2  <0> d          -0.891  -1.752   0.981  0.00  0.00    -0.035 A 
ATOM      7  C1  <0> d          -1.905  -2.143   2.025  0.00  0.00     0.050 C 
ATOM      8  C3  <0> d          -0.951  -2.308  -0.282  0.00  0.00     0.009 A 
ATOM      9  C4  <0> d          -0.020  -1.951  -1.241  0.00  0.00     0.001 A 
ATOM     10  C5  <0> d           0.972  -1.036  -0.939  0.00  0.00     0.009 A 
ATOM     11  C6  <0> d           1.036  -0.476   0.322  0.00  0.00    -0.035 A 
ATOM     12  C7  <0> d           2.118   0.520   0.650  0.00  0.00     0.050 C 
ENDBRANCH   1   5
BRANCH   2  13
ATOM     13  C12 <0> d           0.121   1.687   4.084  0.00  0.00     0.279 C 
ATOM     14  N18 <0> d           0.098   3.150   3.969  0.00  0.00    -0.062 N 
ATOM     15  C17 <0> d          -1.038   3.567   3.139  0.00  0.00     0.235 C 
ATOM     16  H19 <0> d           0.009   3.557   4.888  0.00  0.00     0.280 HD
ATOM     17  C20 <0> d           1.349   3.608   3.351  0.00  0.00     0.270 C 
ATOM     18  C16 <0> d          -2.347   3.161   3.819  0.00  0.00     0.028 C 
ATOM     19  C15 <0> d          -2.373   1.640   3.997  0.00  0.00     0.004 C 
ATOM     20  C14 <0> d          -1.144   1.208   4.801  0.00  0.00     0.043 C 
ENDBRANCH   2  13
TORSDOF 2
