REMARK  0 active torsions:
REMARK  status: ('A' for Active; 'I' for Inactive)
ROOT
ATOM      1  C1  <0> d          -0.018   1.469   0.010  0.00  0.00     0.551 C 
ATOM      2  N2  <0> d           1.373   1.956  -0.001  0.00  0.00     0.173 N 
ATOM      3  C3  <0> d           2.084   1.474   1.197  0.00  0.00     0.551 C 
ATOM      4  N4  <0> d           2.085   0.000   1.178  0.00  0.00     0.173 N 
ATOM      5  C5  <0> d           0.701  -0.505   1.199  0.00  0.00     0.551 C 
ATOM      6  N6  <0> d           0.002  -0.004   0.002  0.00  0.00     0.173 N 
ATOM      7  C7  <0> d           0.678  -0.492  -1.214  0.00  0.00     0.551 C 
ATOM      8  N8  <0> d           2.062   0.013  -1.214  0.00  0.00     0.173 N 
ATOM      9  C9  <0> d           2.061   1.486  -1.217  0.00  0.00     0.551 C 
ATOM     10  C10 <0> d           2.779  -0.488  -0.027  0.00  0.00     0.551 C 
ENDROOT
TORSDOF 0
