REMARK  5 active torsions:
REMARK  status: ('A' for Active; 'I' for Inactive)
REMARK    1  A    between atoms: C2_2  and  C3_3 
REMARK    2  A    between atoms: C3_3  and  C4_4 
REMARK    3  A    between atoms: C4_4  and  C5_5 
REMARK    4  A    between atoms: C4_4  and  C8_8 
REMARK    5  A    between atoms: C5_5  and  C6_6 
ROOT
ATOM      1  C4  ZIN AC000      -1.413  -2.063   0.004  0.00  0.00     0.087 C 
ENDROOT
BRANCH   1   2
ATOM      2  C3  ZIN AC000      -1.433  -0.534   0.013  0.00  0.00     0.015 C 
BRANCH   2   3
ATOM      3  C2  ZIN AC000       0.002  -0.004   0.002  0.00  0.00    -0.004 C 
ATOM      4  C1  ZIN AC000      -0.019   1.526   0.010  0.00  0.00     0.005 C 
ENDBRANCH   2   3
ENDBRANCH   1   2
BRANCH   1   5
ATOM      5  C5  ZIN AC000      -2.841  -2.594   0.141  0.00  0.00     0.015 C 
BRANCH   5   6
ATOM      6  C6  ZIN AC000      -2.810  -4.119   0.258  0.00  0.00    -0.004 C 
ATOM      7  C7  ZIN AC000      -4.239  -4.649   0.394  0.00  0.00     0.005 C 
ENDBRANCH   5   6
ENDBRANCH   1   5
BRANCH   1   8
ATOM      8  C8  ZIN AC000      -0.818  -2.551  -1.292  0.00  0.00     0.177 C 
ATOM      9  O9  ZIN AC000       0.189  -3.238  -1.280  0.00  0.00    -0.648 OA
ATOM     10  O10 ZIN AC000      -1.343  -2.257  -2.352  0.00  0.00    -0.648 OA
ENDBRANCH   1   8
TORSDOF 5
