REMARK  7 active torsions:
REMARK  status: ('A' for Active; 'I' for Inactive)
REMARK    1  A    between atoms: C2_2  and  C3_3 
REMARK    2  A    between atoms: C3_3  and  N4_4 
REMARK    3  A    between atoms: N4_4  and  C5_5 
REMARK    4  A    between atoms: N4_4  and  S8_8 
REMARK    5  A    between atoms: C5_5  and  C6_6 
REMARK    6  A    between atoms: S8_8  and  C11_11 
REMARK    7  A    between atoms: C14_14  and  C15_15 
ROOT
ATOM      1  S8  ZIN AC000      -1.541  -2.820  -1.427  0.00  0.00     0.260 S 
ATOM      2  O9  ZIN AC000      -2.038  -4.112  -1.105  0.00  0.00    -0.200 OA
ATOM      3  O10 ZIN AC000      -2.189  -1.942  -2.337  0.00  0.00    -0.200 OA
ENDROOT
BRANCH   1   4
ATOM      4  N4  ZIN AC000      -1.413  -1.998   0.005  0.00  0.00    -0.307 N 
BRANCH   4   5
ATOM      5  C3  ZIN AC000      -1.433  -0.534   0.013  0.00  0.00     0.135 C 
BRANCH   5   6
ATOM      6  C2  ZIN AC000       0.002  -0.004   0.002  0.00  0.00     0.016 C 
ATOM      7  C1  ZIN AC000      -0.019   1.526   0.010  0.00  0.00     0.006 C 
ENDBRANCH   5   6
ENDBRANCH   4   5
BRANCH   4   8
ATOM      8  C5  ZIN AC000      -1.281  -2.736   1.264  0.00  0.00     0.135 C 
BRANCH   8   9
ATOM      9  C6  ZIN AC000      -2.660  -2.905   1.904  0.00  0.00     0.016 C 
ATOM     10  C7  ZIN AC000      -2.522  -3.675   3.218  0.00  0.00     0.006 C 
ENDBRANCH   8   9
ENDBRANCH   4   8
ENDBRANCH   1   4
BRANCH   1  11
ATOM     11  C11 ZIN AC000       0.094  -3.056  -2.041  0.00  0.00     0.079 A 
ATOM     12  C19 ZIN AC000       0.805  -4.190  -1.689  0.00  0.00     0.026 A 
ATOM     13  C18 ZIN AC000       2.083  -4.383  -2.170  0.00  0.00     0.020 A 
ATOM     14  C14 ZIN AC000       2.664  -3.425  -3.005  0.00  0.00     0.040 A 
ATOM     15  C13 ZIN AC000       1.942  -2.280  -3.352  0.00  0.00     0.020 A 
ATOM     16  C12 ZIN AC000       0.663  -2.103  -2.868  0.00  0.00     0.026 A 
BRANCH  14  17
ATOM     17  C15 ZIN AC000       4.033  -3.622  -3.519  0.00  0.00     0.209 C 
ATOM     18  O16 ZIN AC000       4.539  -2.782  -4.249  0.00  0.00    -0.644 OA
ATOM     19  O17 ZIN AC000       4.662  -4.626  -3.213  0.00  0.00    -0.644 OA
ENDBRANCH  14  17
ENDBRANCH   1  11
TORSDOF 7
