REMARK  3 active torsions:
REMARK  status: ('A' for Active; 'I' for Inactive)
REMARK    1  A    between atoms: C2_2  and  O4_4 
REMARK    2  A    between atoms: O4_4  and  C5_5 
REMARK    3  A    between atoms: C5_5  and  C6_6 
ROOT
ATOM      1  C5  <0> d          -1.164  -2.098   0.145  0.00  0.00     0.138 C 
ATOM      2  C9  <0> d          -0.127  -2.255  -0.994  0.00  0.00     0.048 C 
ATOM      3  C10 <0> d          -0.834  -3.052  -2.124  0.00  0.00     0.009 C 
ATOM      4  C11 <0> d          -2.318  -2.770  -1.866  0.00  0.00     0.005 C 
ATOM      5  C13 <0> d          -3.294  -3.778  -2.442  0.00  0.00     0.018 C 
ATOM      6  C15 <0> d          -3.209  -3.808  -3.942  0.00  0.00    -0.014 C 
ATOM      7  C16 <0> d          -4.274  -4.087  -4.692  0.00  0.00    -0.058 C 
ATOM      8  C17 <0> d          -4.136  -4.112  -6.192  0.00  0.00     0.048 C 
ATOM      9  C18 <0> d          -5.573  -4.370  -4.085  0.00  0.00    -0.040 C 
ATOM     10  C19 <0> d          -6.636  -4.662  -4.873  0.00  0.00     0.058 C 
ATOM     11  C20 <0> d          -7.906  -4.921  -4.335  0.00  0.00     0.149 C 
ATOM     12  O21 <0> d          -8.829  -5.191  -5.076  0.00  0.00    -0.293 OA
ATOM     13  C22 <0> d          -8.136  -4.866  -2.847  0.00  0.00     0.084 C 
ATOM     14  C23 <0> d          -7.136  -3.888  -2.221  0.00  0.00     0.022 C 
ATOM     15  C24 <0> d          -5.718  -4.333  -2.584  0.00  0.00    -0.012 C 
ATOM     16  C25 <0> d          -5.456  -5.727  -2.010  0.00  0.00     0.021 C 
ATOM     17  C26 <0> d          -4.703  -3.345  -2.006  0.00  0.00     0.006 C 
ATOM     18  C28 <0> d          -4.826  -3.292  -0.488  0.00  0.00     0.007 C 
ATOM     19  C29 <0> d          -3.748  -2.382   0.126  0.00  0.00     0.013 C 
ATOM     20  C30 <0> d          -2.392  -2.875  -0.318  0.00  0.00    -0.001 C 
ATOM     21  C31 <0> d          -2.235  -4.352   0.047  0.00  0.00     0.019 C 
ENDROOT
BRANCH   1  22
ATOM     22  O4  <0> d          -1.497  -0.697   0.334  0.00  0.00    -0.302 OA
BRANCH  22  23
ATOM     23  C2  <0> d          -0.486   0.134   0.634  0.00  0.00     0.256 C 
ATOM     24  C1  <0> d          -0.734   1.617   0.731  0.00  0.00     0.126 C 
ATOM     25  O3  <0> d           0.622  -0.307   0.828  0.00  0.00    -0.266 OA
ENDBRANCH  22  23
ENDBRANCH   1  22
BRANCH   1  26
ATOM     26  C6  <0> d          -0.629  -2.684   1.426  0.00  0.00     0.158 C 
ATOM     27  C7  <0> d          -1.146  -2.192   2.754  0.00  0.00     0.094 C 
ATOM     28  O8  <0> d           0.214  -3.547   1.389  0.00  0.00    -0.295 OA
ENDBRANCH   1  26
TORSDOF 3
