REMARK  7 active torsions:
REMARK  status: ('A' for Active; 'I' for Inactive)
REMARK    1  A    between atoms: C2_2  and  C3_3 
REMARK       I    between atoms: N7_7  and  C8_8 
REMARK       I    between atoms: C8_8  and  N10_10 
REMARK    2  A    between atoms: N10_10  and  C11_11 
REMARK    3  A    between atoms: C11_11  and  C12_12 
REMARK    4  A    between atoms: C12_12  and  C13_13 
REMARK    5  A    between atoms: C16_16  and  S17_17 
REMARK    6  A    between atoms: S17_17  and  N20_20 
REMARK       I    between atoms: N20_20  and  C21_21 
REMARK       I    between atoms: C21_21  and  N23_23 
REMARK    7  A    between atoms: N23_23  and  C24_24 
ROOT
ATOM      1  C13 ZIN AC000      -6.070  -1.681   6.347  0.00  0.00    -0.057 A 
ATOM      2  C14 ZIN AC000      -7.003  -0.715   6.676  0.00  0.00     0.009 A 
ATOM      3  C15 ZIN AC000      -8.036  -1.019   7.543  0.00  0.00     0.026 A 
ATOM      4  C16 ZIN AC000      -8.136  -2.289   8.081  0.00  0.00     0.081 A 
ATOM      5  C33 ZIN AC000      -7.204  -3.254   7.751  0.00  0.00     0.026 A 
ATOM      6  C34 ZIN AC000      -6.173  -2.951   6.881  0.00  0.00     0.009 A 
ENDROOT
BRANCH   1   7
ATOM      7  C12 ZIN AC000      -4.944  -1.349   5.402  0.00  0.00     0.058 C 
BRANCH   7   8
ATOM      8  C11 ZIN AC000      -5.383  -1.640   3.965  0.00  0.00     0.129 C 
BRANCH   8   9
ATOM      9  N10 ZIN AC000      -4.288  -1.317   3.046  0.00  0.00    -0.342 N 
ATOM     10  C8  ZIN AC000      -4.448  -1.495   1.719  0.00  0.00     0.325 C 
ATOM     11  N7  ZIN AC000      -3.441  -1.198   0.874  0.00  0.00    -0.262 N 
ATOM     12  O9  ZIN AC000      -5.500  -1.923   1.286  0.00  0.00    -0.247 OA
ATOM     13  C6  ZIN AC000      -3.463  -1.338  -0.588  0.00  0.00     0.171 A 
ATOM     14  C35 ZIN AC000      -2.227  -0.726   1.214  0.00  0.00     0.258 A 
ATOM     15  C4  ZIN AC000      -2.105  -0.878  -1.066  0.00  0.00    -0.054 A 
ATOM     16  C3  ZIN AC000      -1.412  -0.526   0.013  0.00  0.00     0.013 A 
ATOM     17  C5  ZIN AC000      -1.626  -0.830  -2.494  0.00  0.00     0.046 C 
ATOM     18  O36 ZIN AC000      -1.863  -0.492   2.350  0.00  0.00    -0.267 OA
ATOM     19  H47 ZIN AC000      -3.449  -0.976   3.392  0.00  0.00     0.164 HD
BRANCH  16  20
ATOM     20  C2  ZIN AC000       0.002  -0.004   0.002  0.00  0.00     0.040 C 
ATOM     21  C1  ZIN AC000      -0.019   1.526   0.010  0.00  0.00     0.010 C 
ENDBRANCH  16  20
ENDBRANCH   8   9
ENDBRANCH   7   8
ENDBRANCH   1   7
BRANCH   4  22
ATOM     22  S17 ZIN AC000      -9.452  -2.676   9.187  0.00  0.00     0.287 S 
ATOM     23  O18 ZIN AC000      -9.008  -3.777   9.968  0.00  0.00    -0.198 OA
ATOM     24  O19 ZIN AC000      -9.878  -1.444   9.751  0.00  0.00    -0.198 OA
BRANCH  22  25
ATOM     25  N20 ZIN AC000     -10.714  -3.232   8.270  0.00  0.00    -0.102 NA
ATOM     26  C21 ZIN AC000     -11.865  -3.605   8.864  0.00  0.00     0.353 C 
ATOM     27  O22 ZIN AC000     -11.976  -3.534  10.073  0.00  0.00    -0.244 OA
ATOM     28  N23 ZIN AC000     -12.893  -4.058   8.119  0.00  0.00    -0.336 N 
ATOM     29  H54 ZIN AC000     -12.804  -4.114   7.154  0.00  0.00     0.164 HD
BRANCH  28  30
ATOM     30  C24 ZIN AC000     -14.143  -4.464   8.765  0.00  0.00     0.086 C 
ATOM     31  C32 ZIN AC000     -14.873  -5.472   7.875  0.00  0.00     0.026 C 
ATOM     32  C31 ZIN AC000     -15.184  -4.827   6.522  0.00  0.00     0.006 C 
ATOM     33  C28 ZIN AC000     -16.070  -3.598   6.734  0.00  0.00    -0.019 C 
ATOM     34  C27 ZIN AC000     -15.340  -2.590   7.624  0.00  0.00     0.006 C 
ATOM     35  C30 ZIN AC000     -16.380  -2.953   5.382  0.00  0.00     0.010 C 
ATOM     36  C26 ZIN AC000     -15.030  -3.235   8.977  0.00  0.00     0.026 C 
ENDBRANCH  28  30
ENDBRANCH  22  25
ENDBRANCH   4  22
TORSDOF 7
