REMARK  2 active torsions:
REMARK  status: ('A' for Active; 'I' for Inactive)
REMARK    1  A    between atoms: O1_1  and  C2_2 
REMARK    2  A    between atoms: C6_6  and  O7_7 
ROOT
ATOM      1  C2  ZIN AC000       0.002  -0.004   0.002  0.00  0.00     0.068 A 
ATOM      2  C3  ZIN AC000       0.006  -0.692  -1.203  0.00  0.00     0.037 A 
ATOM      3  C4  ZIN AC000       0.025  -2.074  -1.212  0.00  0.00     0.005 A 
ATOM      4  C5  ZIN AC000       0.040  -2.774  -0.020  0.00  0.00     0.037 A 
ATOM      5  C6  ZIN AC000       0.036  -2.090   1.188  0.00  0.00     0.068 A 
ATOM      6  C8  ZIN AC000       0.023  -0.704   1.198  0.00  0.00     0.072 A 
ENDROOT
BRANCH   1   7
ATOM      7  O1  ZIN AC000      -0.016   1.355   0.009  0.00  0.00    -0.361 OA
ATOM      8  H9  ZIN AC000       0.862   1.760   0.003  0.00  0.00     0.217 HD
ENDBRANCH   1   7
BRANCH   5   9
ATOM      9  O7  ZIN AC000       0.051  -2.780   2.359  0.00  0.00    -0.361 OA
ATOM     10  H13 ZIN AC000       0.938  -2.967   2.693  0.00  0.00     0.217 HD
ENDBRANCH   5   9
TORSDOF 2
