REMARK  6 active torsions:
REMARK  status: ('A' for Active; 'I' for Inactive)
REMARK    1  A    between atoms: C6_6  and  O8_7 
REMARK    2  A    between atoms: O8_7  and  C9_8 
REMARK    3  A    between atoms: C9_8  and  C11_10 
REMARK    4  A    between atoms: C11_10  and  O12_11 
REMARK    5  A    between atoms: C11_10  and  C13_12 
REMARK    6  A    between atoms: C11_10  and  C19_18 
ROOT
ATOM      1  C11 ZIN AC000       5.262  -1.825   2.430  0.00  0.00     0.176 C 
ENDROOT
BRANCH   1   2
ATOM      2  C9  ZIN AC000       4.022  -1.963   1.585  0.00  0.00     0.299 C 
ATOM      3  O10 ZIN AC000       3.872  -2.938   0.888  0.00  0.00    -0.261 OA
BRANCH   2   4
ATOM      4  O8  ZIN AC000       3.085  -1.002   1.607  0.00  0.00    -0.312 OA
BRANCH   4   5
ATOM      5  C6  ZIN AC000       1.917  -1.202   0.767  0.00  0.00     0.159 C 
ATOM      6  C5  ZIN AC000       2.132  -0.568  -0.632  0.00  0.00     0.062 C 
ATOM      7  C4  ZIN AC000       0.675  -0.283  -1.073  0.00  0.00     0.239 C 
ATOM      8  N2  ZIN AC000      -0.020   0.134   0.163  0.00  0.00    -0.072 N 
ATOM      9  C1  ZIN AC000      -0.036   1.600   0.250  0.00  0.00     0.272 C 
ATOM     10  C24 ZIN AC000       0.704  -0.424   1.320  0.00  0.00     0.268 C 
ATOM     11  C3  ZIN AC000      -1.397  -0.377   0.149  0.00  0.00     0.272 C 
ENDBRANCH   4   5
ENDBRANCH   2   4
ENDBRANCH   1   2
BRANCH   1  12
ATOM     12  O12 ZIN AC000       4.932  -1.172   3.658  0.00  0.00    -0.374 OA
ATOM     13  H35 ZIN AC000       4.275  -1.642   4.189  0.00  0.00     0.211 HD
ENDBRANCH   1  12
BRANCH   1  14
ATOM     14  C13 ZIN AC000       5.825  -3.191   2.724  0.00  0.00    -0.014 A 
ATOM     15  C18 ZIN AC000       6.092  -4.066   1.688  0.00  0.00     0.011 A 
ATOM     16  C17 ZIN AC000       6.612  -5.319   1.957  0.00  0.00     0.001 A 
ATOM     17  C16 ZIN AC000       6.857  -5.699   3.263  0.00  0.00     0.000 A 
ATOM     18  C15 ZIN AC000       6.585  -4.826   4.300  0.00  0.00     0.001 A 
ATOM     19  C14 ZIN AC000       6.069  -3.572   4.031  0.00  0.00     0.011 A 
ENDBRANCH   1  14
BRANCH   1  20
ATOM     20  C19 ZIN AC000       6.304  -0.996   1.676  0.00  0.00     0.035 C 
ATOM     21  C23 ZIN AC000       5.771   0.427   1.408  0.00  0.00     0.008 C 
ATOM     22  C22 ZIN AC000       6.270   0.827   0.008  0.00  0.00     0.001 C 
ATOM     23  C21 ZIN AC000       7.090  -0.367  -0.525  0.00  0.00     0.001 C 
ATOM     24  C20 ZIN AC000       6.545  -1.584   0.264  0.00  0.00     0.008 C 
ENDBRANCH   1  20
TORSDOF 6
