REMARK  9 active torsions:
REMARK  status: ('A' for Active; 'I' for Inactive)
REMARK    1  A    between atoms: C2_2  and  C3_3 
REMARK       I    between atoms: C3_3  and  N5_5 
REMARK    2  A    between atoms: N5_5  and  C6_6 
REMARK    3  A    between atoms: N5_5  and  C12_12 
REMARK    4  A    between atoms: C12_12  and  C13_13 
REMARK    5  A    between atoms: C13_13  and  O15_15 
REMARK    6  A    between atoms: N19_19  and  C20_20 
REMARK    7  A    between atoms: C20_20  and  C21_21 
REMARK    8  A    between atoms: C21_21  and  C22_22 
REMARK    9  A    between atoms: C22_22  and  O24_24 
ROOT
ATOM      1  C12 <0> d          -0.365  -2.716  -0.092  0.00  0.00     0.131 C 
ATOM      2  C17 <0> d          -0.295  -3.591  -1.347  0.00  0.00     0.072 C 
ATOM      3  C18 <0> d          -0.346  -2.698  -2.589  0.00  0.00     0.275 C 
ATOM      4  N19 <0> d           0.781  -1.757  -2.563  0.00  0.00     0.089 N 
ATOM      5  C26 <0> d           0.709  -0.874  -1.391  0.00  0.00     0.275 C 
ATOM      6  C27 <0> d           0.791  -1.713  -0.114  0.00  0.00     0.072 C 
ENDROOT
BRANCH   1   7
ATOM      7  N5  <0> d          -1.640  -1.994  -0.070  0.00  0.00    -0.298 N 
ATOM      8  C3  <0> d          -2.498  -2.110  -1.102  0.00  0.00     0.225 C 
ATOM      9  O4  <0> d          -2.444  -3.078  -1.830  0.00  0.00    -0.273 OA
BRANCH   8  10
ATOM     10  C2  <0> d          -3.526  -1.036  -1.352  0.00  0.00     0.099 C 
ATOM     11  C1  <0> d          -3.722  -0.858  -2.859  0.00  0.00     0.014 C 
ENDBRANCH   8  10
BRANCH   7  12
ATOM     12  C6  <0> d          -1.966  -1.185   1.024  0.00  0.00     0.038 A 
ATOM     13  C11 <0> d          -3.233  -0.626   1.123  0.00  0.00     0.030 A 
ATOM     14  C10 <0> d          -3.554   0.168   2.207  0.00  0.00     0.002 A 
ATOM     15  C9  <0> d          -2.611   0.416   3.187  0.00  0.00     0.000 A 
ATOM     16  C8  <0> d          -1.346  -0.134   3.088  0.00  0.00     0.002 A 
ATOM     17  C7  <0> d          -1.021  -0.933   2.010  0.00  0.00     0.030 A 
ENDBRANCH   7  12
ENDBRANCH   1   7
BRANCH   1  18
ATOM     18  C13 <0> d          -0.257  -3.584   1.135  0.00  0.00     0.287 C 
ATOM     19  O14 <0> d           0.825  -3.802   1.627  0.00  0.00    -0.262 OA
BRANCH  18  20
ATOM     20  O15 <0> d          -1.361  -4.116   1.681  0.00  0.00    -0.325 OA
ATOM     21  C16 <0> d          -1.181  -4.942   2.861  0.00  0.00     0.213 C 
ENDBRANCH  18  20
ENDBRANCH   1  18
BRANCH   4  22
ATOM     22  C20 <0> d           0.845  -0.977  -3.806  0.00  0.00     0.282 C 
BRANCH  22  23
ATOM     23  C21 <0> d           2.159  -0.194  -3.851  0.00  0.00     0.141 C 
BRANCH  23  24
ATOM     24  C22 <0> d           2.224   0.606  -5.126  0.00  0.00     0.260 C 
ATOM     25  O23 <0> d           1.313   0.556  -5.918  0.00  0.00    -0.265 OA
BRANCH  24  26
ATOM     26  O24 <0> d           3.294   1.374  -5.382  0.00  0.00    -0.326 OA
ATOM     27  C25 <0> d           3.289   2.117  -6.630  0.00  0.00     0.213 C 
ENDBRANCH  24  26
ENDBRANCH  23  24
ENDBRANCH  22  23
ENDBRANCH   4  22
TORSDOF 9
