REMARK  1 active torsions:
REMARK  status: ('A' for Active; 'I' for Inactive)
REMARK    1  A    between atoms: C7_7  and  C8_8 
ROOT
ATOM      1  C1  ZIN AC000       0.022   1.461   0.006  0.00  0.00     0.155 C 
ATOM      2  N2  ZIN AC000       0.021  -0.004   0.000  0.00  0.00    -0.360 N 
ATOM      3  C3  ZIN AC000      -0.077  -0.662  -1.168  0.00  0.00     0.090 A 
ATOM      4  C4  ZIN AC000      -0.080  -2.022  -1.205  0.00  0.00     0.017 A 
ATOM      5  C5  ZIN AC000       0.020  -2.752  -0.021  0.00  0.00     0.004 A 
ATOM      6  C6  ZIN AC000       0.121  -2.074   1.181  0.00  0.00     0.031 A 
ATOM      7  C7  ZIN AC000       0.126  -0.680   1.176  0.00  0.00     0.053 A 
ENDROOT
BRANCH   7   8
ATOM      8  C8  ZIN AC000       0.232   0.057   2.438  0.00  0.00     0.178 C 
ATOM      9  N9  ZIN AC000       0.120   1.353   2.446  0.00  0.00    -0.108 NA
ATOM     10  O10 ZIN AC000       0.209   1.966   3.495  0.00  0.00    -0.062 OA
ENDBRANCH   7   8
TORSDOF 1
