REMARK  5 active torsions:
REMARK  status: ('A' for Active; 'I' for Inactive)
REMARK    1  A    between atoms: N2_2  and  C5_5 
REMARK    2  A    between atoms: C5_5  and  C6_6 
REMARK    3  A    between atoms: C6_6  and  C7_7 
REMARK    4  A    between atoms: C7_7  and  C9_8 
REMARK    5  A    between atoms: C7_7  and  C16_15 
ROOT
ATOM      1  C7  ZIN AC000      -3.513  -0.640  -1.275  0.00  0.00     0.072 C 
ENDROOT
BRANCH   1   2
ATOM      2  C6  ZIN AC000      -2.220   0.177  -1.249  0.00  0.00     0.043 C 
BRANCH   2   3
ATOM      3  C5  ZIN AC000      -1.455  -0.121   0.042  0.00  0.00     0.235 C 
BRANCH   3   4
ATOM      4  N2  ZIN AC000      -0.213   0.664   0.068  0.00  0.00    -0.079 N 
ATOM      5  C1  ZIN AC000      -0.539   2.095   0.131  0.00  0.00     0.269 C 
ATOM      6  H3  ZIN AC000       0.320   0.477  -0.769  0.00  0.00     0.278 HD
ATOM      7  C4  ZIN AC000       0.579   0.289   1.247  0.00  0.00     0.269 C 
ENDBRANCH   3   4
ENDBRANCH   2   3
ENDBRANCH   1   2
BRANCH   1   8
ATOM      8  C9  ZIN AC000      -4.207  -0.440  -2.599  0.00  0.00    -0.048 A 
ATOM      9  C15 ZIN AC000      -4.546  -1.534  -3.372  0.00  0.00     0.009 A 
ATOM     10  C14 ZIN AC000      -5.187  -1.352  -4.583  0.00  0.00     0.024 A 
ATOM     11  C12 ZIN AC000      -5.478  -0.074  -5.026  0.00  0.00     0.034 A 
ATOM     12  C11 ZIN AC000      -5.133   1.020  -4.254  0.00  0.00     0.024 A 
ATOM     13 Cl13 ZIN AC000      -6.276   0.155  -6.551  0.00  0.00    -0.084 Cl
ATOM     14  C10 ZIN AC000      -4.497   0.837  -3.041  0.00  0.00     0.009 A 
ENDBRANCH   1   8
BRANCH   1  15
ATOM     15  C16 ZIN AC000      -4.419  -0.184  -0.160  0.00  0.00     0.042 A 
ATOM     16  N21 ZIN AC000      -5.168  -1.065   0.473  0.00  0.00    -0.265 NA
ATOM     17  C20 ZIN AC000      -5.971  -0.713   1.458  0.00  0.00     0.117 A 
ATOM     18  C19 ZIN AC000      -6.064   0.607   1.856  0.00  0.00     0.019 A 
ATOM     19  C18 ZIN AC000      -5.295   1.563   1.210  0.00  0.00     0.003 A 
ATOM     20  C17 ZIN AC000      -4.459   1.154   0.183  0.00  0.00     0.028 A 
ENDBRANCH   1  15
TORSDOF 5
