REMARK  4 active torsions:
REMARK  status: ('A' for Active; 'I' for Inactive)
REMARK    1  A    between atoms: C2_2  and  S4_3 
REMARK    2  A    between atoms: C2_2  and  C5_4 
REMARK       I    between atoms: C5_4  and  N7_6 
REMARK    3  A    between atoms: N7_6  and  C8_7 
REMARK    4  A    between atoms: C8_7  and  C9_8 
ROOT
ATOM      1  C5  <0> d           0.707  -0.490  -1.238  0.00  0.00     0.231 C 
ATOM      2  O6  <0> d           1.646   0.134  -1.686  0.00  0.00    -0.272 OA
ATOM      3  N7  <0> d           0.295  -1.619  -1.849  0.00  0.00    -0.350 N 
ATOM      4  H16 <0> d          -0.455  -2.118  -1.491  0.00  0.00     0.163 HD
ENDROOT
BRANCH   1   5
ATOM      5  C2  <0> d           0.002  -0.004   0.002  0.00  0.00     0.132 C 
ATOM      6  C1  <0> d          -0.019   1.526   0.010  0.00  0.00     0.031 C 
BRANCH   5   7
ATOM      7  S4  <0> d           0.879  -0.605   1.472  0.00  0.00    -0.168 SA
ATOM      8  H15 <0> d           2.106  -0.071   1.331  0.00  0.00     0.102 HD
ENDBRANCH   5   7
ENDBRANCH   1   5
BRANCH   3   9
ATOM      9  C8  <0> d           0.981  -2.091  -3.054  0.00  0.00     0.235 C 
BRANCH   9  10
ATOM     10  C9  <0> d           0.331  -3.362  -3.537  0.00  0.00     0.191 C 
ATOM     11  O10 <0> d          -0.617  -3.830  -2.930  0.00  0.00    -0.647 OA
ATOM     12  O11 <0> d           0.753  -3.922  -4.534  0.00  0.00    -0.647 OA
ENDBRANCH   9  10
ENDBRANCH   3   9
TORSDOF 4
