REMARK  7 active torsions:
REMARK  status: ('A' for Active; 'I' for Inactive)
REMARK    1  A    between atoms: C2_2  and  C3_3 
REMARK    2  A    between atoms: C3_3  and  N4_4 
REMARK    3  A    between atoms: N4_4  and  C5_5 
REMARK    4  A    between atoms: C5_5  and  C8_7 
REMARK       I    between atoms: C8_7  and  N10_9 
REMARK    5  A    between atoms: N10_9  and  C11_10 
REMARK    6  A    between atoms: C12_11  and  C13_12 
REMARK    7  A    between atoms: C13_12  and  O15_14 
ROOT
ATOM      1  C8  ZIN AC000      -2.981  -4.061   0.101  0.00  0.00     0.255 C 
ATOM      2  O9  ZIN AC000      -1.986  -4.711  -0.140  0.00  0.00    -0.271 OA
ATOM      3  N10 ZIN AC000      -3.973  -4.597   0.840  0.00  0.00    -0.323 N 
ATOM      4  H32 ZIN AC000      -4.731  -4.052   1.102  0.00  0.00     0.169 HD
ENDROOT
BRANCH   3   5
ATOM      5  C11 ZIN AC000      -3.909  -5.936   1.227  0.00  0.00     0.064 A 
ATOM      6  C19 ZIN AC000      -2.834  -6.484   1.899  0.00  0.00    -0.027 A 
ATOM      7  C18 ZIN AC000      -2.953  -7.782   2.192  0.00  0.00     0.059 A 
ATOM      8  C20 ZIN AC000      -1.622  -5.676   2.284  0.00  0.00     0.051 C 
ATOM      9  S17 ZIN AC000      -4.433  -8.411   1.625  0.00  0.00    -0.093 SA
ATOM     10  C12 ZIN AC000      -4.907  -6.848   0.975  0.00  0.00     0.107 A 
BRANCH  10  11
ATOM     11  C13 ZIN AC000      -6.120  -6.572   0.300  0.00  0.00     0.302 C 
ATOM     12  O14 ZIN AC000      -6.300  -5.481  -0.207  0.00  0.00    -0.259 OA
BRANCH  11  13
ATOM     13  O15 ZIN AC000      -7.078  -7.520   0.220  0.00  0.00    -0.322 OA
ATOM     14  C16 ZIN AC000      -8.277  -7.173  -0.476  0.00  0.00     0.213 C 
ENDBRANCH  11  13
ENDBRANCH  10  11
ENDBRANCH   3   5
BRANCH   1  15
ATOM     15  C5  ZIN AC000      -3.108  -2.655  -0.426  0.00  0.00     0.307 C 
ATOM     16  C7  ZIN AC000      -4.338  -2.559  -1.332  0.00  0.00     0.053 C 
BRANCH  15  17
ATOM     17  N4  ZIN AC000      -1.905  -2.309  -1.194  0.00  0.00     0.096 N 
ATOM     18  H28 ZIN AC000      -1.954  -2.683  -2.130  0.00  0.00     0.316 HD
BRANCH  17  19
ATOM     19  C3  ZIN AC000      -1.696  -0.855  -1.218  0.00  0.00     0.270 C 
BRANCH  19  20
ATOM     20  C2  ZIN AC000      -0.437  -0.534  -2.026  0.00  0.00     0.025 C 
ATOM     21  C1  ZIN AC000      -0.219   0.980  -2.050  0.00  0.00     0.007 C 
ENDBRANCH  19  20
ENDBRANCH  17  19
ENDBRANCH  15  17
ENDBRANCH   1  15
TORSDOF 7
