REMARK  6 active torsions:
REMARK  status: ('A' for Active; 'I' for Inactive)
REMARK    1  A    between atoms: C7_7  and  O8_8 
REMARK    2  A    between atoms: O8_8  and  C9_9 
REMARK    3  A    between atoms: C9_9  and  C10_10 
REMARK    4  A    between atoms: C10_10  and  C11_11 
REMARK    5  A    between atoms: C11_11  and  C12_12 
REMARK    6  A    between atoms: C12_12  and  C15_15 
ROOT
ATOM      1  O8  ZIN AC000       0.051  -2.775   2.359  0.00  0.00    -0.351 OA
ENDROOT
BRANCH   1   2
ATOM      2  C7  ZIN AC000       0.036  -2.088   1.187  0.00  0.00     0.075 A 
ATOM      3  C5  ZIN AC000       0.040  -2.772  -0.020  0.00  0.00    -0.029 A 
ATOM      4  C4  ZIN AC000       0.024  -2.071  -1.210  0.00  0.00     0.010 A 
ATOM      5  C6  ZIN AC000       0.060  -4.279  -0.033  0.00  0.00     0.051 C 
ATOM      6  C3  ZIN AC000       0.006  -0.688  -1.199  0.00  0.00     0.007 A 
ATOM      7  C2  ZIN AC000       0.002  -0.004   0.002  0.00  0.00    -0.059 A 
ATOM      8  C1  ZIN AC000      -0.018   1.503   0.010  0.00  0.00     0.048 C 
ATOM      9  C18 ZIN AC000       0.023  -0.701   1.195  0.00  0.00     0.044 A 
ENDBRANCH   1   2
BRANCH   1  10
ATOM     10  C9  ZIN AC000       0.046  -2.005   3.563  0.00  0.00     0.175 C 
BRANCH  10  11
ATOM     11  C10 ZIN AC000       0.065  -2.946   4.770  0.00  0.00     0.028 C 
BRANCH  11  12
ATOM     12  C11 ZIN AC000       0.060  -2.121   6.059  0.00  0.00     0.022 C 
BRANCH  12  13
ATOM     13  C12 ZIN AC000       0.079  -3.062   7.265  0.00  0.00     0.041 C 
ATOM     14  C13 ZIN AC000      -1.158  -3.961   7.230  0.00  0.00     0.026 C 
ATOM     15  C14 ZIN AC000       1.340  -3.926   7.218  0.00  0.00     0.026 C 
BRANCH  13  16
ATOM     16  C15 ZIN AC000       0.074  -2.250   8.535  0.00  0.00     0.181 C 
ATOM     17  O16 ZIN AC000      -0.443  -2.699   9.544  0.00  0.00    -0.647 OA
ATOM     18  O17 ZIN AC000       0.587  -1.144   8.553  0.00  0.00    -0.647 OA
ENDBRANCH  13  16
ENDBRANCH  12  13
ENDBRANCH  11  12
ENDBRANCH  10  11
ENDBRANCH   1  10
TORSDOF 6
