REMARK  1 active torsions:
REMARK  status: ('A' for Active; 'I' for Inactive)
REMARK    1  A    between atoms: O2_2  and  C3_3 
ROOT
ATOM      1  C3  ZIN AC000       0.755   6.274  -0.517  0.00  0.00     0.266 C 
ATOM      2  O5  ZIN AC000       1.752   5.788   0.369  0.00  0.00    -0.328 OA
ATOM      3  C6  ZIN AC000       1.577   4.435   0.805  0.00  0.00     0.305 C 
ATOM      4  O8  ZIN AC000       2.609   4.161   1.743  0.00  0.00    -0.320 OA
ATOM      5  C9  ZIN AC000       3.761   3.467   1.272  0.00  0.00     0.196 C 
ATOM      6  C10 ZIN AC000       4.972   3.876   2.112  0.00  0.00     0.082 C 
ATOM      7  C11 ZIN AC000       3.492   1.978   1.464  0.00  0.00     0.071 C 
ATOM      8  C12 ZIN AC000       1.988   1.746   1.383  0.00  0.00     0.014 C 
ATOM      9  C13 ZIN AC000       1.413   2.027  -0.001  0.00  0.00     0.033 C 
ATOM     10  C15 ZIN AC000      -0.019   1.526   0.010  0.00  0.00    -0.011 C 
ATOM     11  C17 ZIN AC000       0.002  -0.004   0.002  0.00  0.00     0.010 C 
ATOM     12  C18 ZIN AC000      -0.857   2.003  -1.161  0.00  0.00     0.005 C 
ATOM     13  C19 ZIN AC000      -0.818   3.537  -1.166  0.00  0.00     0.009 C 
ATOM     14  C20 ZIN AC000       0.619   3.945  -1.460  0.00  0.00     0.037 C 
ATOM     15  C22 ZIN AC000       0.700   5.423  -1.776  0.00  0.00     0.044 C 
ATOM     16  C24 ZIN AC000      -0.529   5.824  -2.594  0.00  0.00     0.015 C 
ATOM     17  C25 ZIN AC000       1.595   3.494  -0.386  0.00  0.00     0.154 C 
ATOM     18  O26 ZIN AC000       2.899   3.584  -1.014  0.00  0.00    -0.221 OA
ATOM     19  O27 ZIN AC000       4.021   3.748  -0.101  0.00  0.00    -0.200 OA
ENDROOT
BRANCH   1  20
ATOM     20  O2  ZIN AC000      -0.515   6.233   0.135  0.00  0.00    -0.366 OA
ATOM     21  C1  ZIN AC000      -0.659   7.189   1.188  0.00  0.00     0.204 C 
ENDBRANCH   1  20
TORSDOF 1
