REMARK  4 active torsions:
REMARK  status: ('A' for Active; 'I' for Inactive)
REMARK    1  A    between atoms: C3_3  and  O4_4 
REMARK    2  A    between atoms: O4_4  and  C5_5 
REMARK    3  A    between atoms: C18_16  and  O20_17 
REMARK    4  A    between atoms: O20_17  and  C21_18 
ROOT
ATOM      1  C1  ZIN AC000       0.052  -1.192   0.030  0.00  0.00     0.015 C 
ATOM      2  C2  ZIN AC000       0.024  -0.019   0.037  0.00  0.00    -0.077 C 
ATOM      3  C3  ZIN AC000      -0.011   1.453   0.047  0.00  0.00     0.140 C 
ATOM      4  C8  ZIN AC000      -0.705   1.981  -1.234  0.00  0.00     0.053 C 
ATOM      5  C9  ZIN AC000       0.377   2.766  -2.025  0.00  0.00     0.010 C 
ATOM      6  C10 ZIN AC000       1.686   2.149  -1.522  0.00  0.00     0.002 C 
ATOM      7  C12 ZIN AC000       2.928   3.006  -1.692  0.00  0.00    -0.005 C 
ATOM      8  C14 ZIN AC000       3.195   3.244  -3.180  0.00  0.00     0.009 C 
ATOM      9  C15 ZIN AC000       4.420   4.148  -3.341  0.00  0.00     0.034 C 
ATOM     10  C16 ZIN AC000       5.586   3.508  -2.607  0.00  0.00    -0.077 C 
ATOM     11  C17 ZIN AC000       6.707   3.355  -3.247  0.00  0.00     0.008 C 
ATOM     12  C18 ZIN AC000       7.927   2.731  -2.631  0.00  0.00     0.155 C 
ATOM     13  C24 ZIN AC000       7.873   2.926  -1.112  0.00  0.00     0.037 C 
ATOM     14  C25 ZIN AC000       6.557   2.342  -0.598  0.00  0.00     0.012 C 
ATOM     15  C26 ZIN AC000       5.373   3.094  -1.180  0.00  0.00     0.019 C 
ATOM     16  C28 ZIN AC000       4.103   2.247  -1.056  0.00  0.00    -0.002 C 
ATOM     17  C30 ZIN AC000       3.845   1.940   0.416  0.00  0.00     0.006 C 
ATOM     18  C31 ZIN AC000       2.513   1.199   0.617  0.00  0.00     0.014 C 
ATOM     19  C32 ZIN AC000       1.405   2.016  -0.001  0.00  0.00     0.003 C 
ATOM     20  C33 ZIN AC000       1.425   3.434   0.573  0.00  0.00     0.020 C 
ENDROOT
BRANCH   3  21
ATOM     21  O4  ZIN AC000      -0.704   1.931   1.230  0.00  0.00    -0.296 OA
BRANCH  21  22
ATOM     22  C5  ZIN AC000      -1.976   1.538   1.392  0.00  0.00     0.256 C 
ATOM     23  C6  ZIN AC000      -2.759   1.994   2.597  0.00  0.00     0.126 C 
ATOM     24  O7  ZIN AC000      -2.495   0.817   0.573  0.00  0.00    -0.266 OA
ENDBRANCH  21  22
ENDBRANCH   3  21
BRANCH  12  25
ATOM     25  O20 ZIN AC000       9.119   3.367  -3.162  0.00  0.00    -0.312 OA
BRANCH  25  26
ATOM     26  C21 ZIN AC000       9.655   2.829  -4.269  0.00  0.00     0.255 C 
ATOM     27  C22 ZIN AC000      10.893   3.435  -4.878  0.00  0.00     0.126 C 
ATOM     28  O23 ZIN AC000       9.144   1.859  -4.777  0.00  0.00    -0.266 OA
ENDBRANCH  25  26
ENDBRANCH  12  25
TORSDOF 4
