REMARK  6 active torsions:
REMARK  status: ('A' for Active; 'I' for Inactive)
REMARK    1  A    between atoms: N2_2  and  C5_5 
REMARK    2  A    between atoms: C5_5  and  C6_6 
REMARK    3  A    between atoms: C6_6  and  O8_7 
REMARK    4  A    between atoms: C6_6  and  C9_8 
REMARK    5  A    between atoms: C12_11  and  O13_12 
REMARK    6  A    between atoms: C14_13  and  O15_14 
ROOT
ATOM      1  C9  <0> d           1.416  -2.494  -2.455  0.00  0.00    -0.025 A 
ATOM      2  C10 <0> d           2.793  -2.612  -2.463  0.00  0.00     0.012 A 
ATOM      3  C11 <0> d           3.445  -3.057  -3.599  0.00  0.00     0.040 A 
ATOM      4  C12 <0> d           2.717  -3.386  -4.731  0.00  0.00     0.098 A 
ATOM      5  C14 <0> d           1.331  -3.267  -4.722  0.00  0.00     0.099 A 
ATOM      6  C16 <0> d           0.683  -2.826  -3.580  0.00  0.00     0.049 A 
ENDROOT
BRANCH   1   7
ATOM      7  C6  <0> d           0.710  -2.008  -1.215  0.00  0.00     0.176 C 
BRANCH   7   8
ATOM      8  C5  <0> d           0.690  -0.478  -1.207  0.00  0.00     0.268 C 
BRANCH   8   9
ATOM      9  N2  <0> d           0.002  -0.004   0.002  0.00  0.00    -0.076 N 
ATOM     10  C1  <0> d          -0.018   1.465   0.010  0.00  0.00     0.267 C 
ATOM     11  H3  <0> d           0.490  -0.338   0.820  0.00  0.00     0.276 HD
ATOM     12  H4  <0> d          -0.945  -0.353   0.009  0.00  0.00     0.276 HD
ENDBRANCH   8   9
ENDBRANCH   7   8
BRANCH   7  13
ATOM     13  O8  <0> d           1.402  -2.481  -0.057  0.00  0.00    -0.389 OA
ATOM     14  H22 <0> d           2.320  -2.183   0.002  0.00  0.00     0.210 HD
ENDBRANCH   7  13
ENDBRANCH   1   7
BRANCH   5  15
ATOM     15  O15 <0> d           0.612  -3.590  -5.831  0.00  0.00    -0.358 OA
ATOM     16  H26 <0> d           0.335  -4.516  -5.865  0.00  0.00     0.217 HD
ENDBRANCH   5  15
BRANCH   4  17
ATOM     17  O13 <0> d           3.357  -3.824  -5.848  0.00  0.00    -0.358 OA
ATOM     18  H25 <0> d           3.473  -4.784  -5.884  0.00  0.00     0.217 HD
ENDBRANCH   4  17
TORSDOF 6
