REMARK  6 active torsions:
REMARK  status: ('A' for Active; 'I' for Inactive)
REMARK    1  A    between atoms: O2_2  and  C3_3 
REMARK    2  A    between atoms: C8_8  and  O9_9 
REMARK    3  A    between atoms: C13_13  and  C15_14 
REMARK    4  A    between atoms: C15_14  and  C16_15 
REMARK    5  A    between atoms: N19_18  and  C20_19 
REMARK    6  A    between atoms: C20_19  and  C21_20 
ROOT
ATOM      1  C3  <0> d          -5.313   2.256  -3.128  0.00  0.00     0.102 A 
ATOM      2  C4  <0> d          -6.136   1.180  -2.829  0.00  0.00     0.047 A 
ATOM      3  C5  <0> d          -5.893   0.405  -1.712  0.00  0.00    -0.041 A 
ATOM      4  C6  <0> d          -4.815   0.701  -0.877  0.00  0.00     0.019 A 
ATOM      5  C7  <0> d          -3.982   1.792  -1.183  0.00  0.00     0.055 A 
ATOM      6  C8  <0> d          -4.230   2.558  -2.302  0.00  0.00     0.102 A 
ATOM      7  C11 <0> d          -4.749  -0.250   0.242  0.00  0.00     0.164 A 
ATOM      8  O12 <0> d          -3.923  -0.247   1.130  0.00  0.00    -0.292 OA
ATOM      9  C13 <0> d          -5.887  -1.230   0.094  0.00  0.00     0.065 A 
ATOM     10  C29 <0> d          -6.630  -0.801  -1.179  0.00  0.00     0.052 A 
ENDROOT
BRANCH   9  11
ATOM     11  C15 <0> d          -6.817  -1.148   1.306  0.00  0.00     0.017 C 
BRANCH  11  12
ATOM     12  C16 <0> d          -7.883  -2.241   1.205  0.00  0.00    -0.010 C 
ATOM     13  C28 <0> d          -8.899  -2.071   2.338  0.00  0.00     0.035 C 
ATOM     14  C27 <0> d          -9.928  -3.202   2.268  0.00  0.00     0.273 C 
ATOM     15  N19 <0> d          -9.243  -4.495   2.391  0.00  0.00     0.092 N 
ATOM     16  C18 <0> d          -8.296  -4.702   1.288  0.00  0.00     0.273 C 
ATOM     17  C17 <0> d          -7.220  -3.616   1.328  0.00  0.00     0.035 C 
BRANCH  15  18
ATOM     18  C20 <0> d         -10.211  -5.598   2.468  0.00  0.00     0.311 C 
BRANCH  18  19
ATOM     19  C21 <0> d         -11.306  -5.239   3.439  0.00  0.00    -0.030 A 
ATOM     20  C26 <0> d         -12.438  -4.583   2.994  0.00  0.00     0.009 A 
ATOM     21  C25 <0> d         -13.444  -4.257   3.884  0.00  0.00     0.001 A 
ATOM     22  C24 <0> d         -13.313  -4.580   5.222  0.00  0.00     0.000 A 
ATOM     23  C23 <0> d         -12.179  -5.231   5.669  0.00  0.00     0.001 A 
ATOM     24  C22 <0> d         -11.175  -5.561   4.777  0.00  0.00     0.009 A 
ENDBRANCH  18  19
ENDBRANCH  15  18
ENDBRANCH  11  12
ENDBRANCH   9  11
BRANCH   6  25
ATOM     25  O9  <0> d          -3.423   3.612  -2.596  0.00  0.00    -0.353 OA
ATOM     26  C10 <0> d          -2.339   3.870  -1.701  0.00  0.00     0.210 C 
ENDBRANCH   6  25
BRANCH   1  27
ATOM     27  O2  <0> d          -5.559   3.014  -4.227  0.00  0.00    -0.353 OA
ATOM     28  C1  <0> d          -6.686   2.648  -5.027  0.00  0.00     0.210 C 
ENDBRANCH   1  27
TORSDOF 6
