REMARK  17 active torsions:
REMARK  status: ('A' for Active; 'I' for Inactive)
REMARK    1  A    between atoms: C10_9  and  O11_10 
REMARK    2  A    between atoms: C15_14  and  C17_15 
REMARK    3  A    between atoms: C17_15  and  C18_16 
REMARK    4  A    between atoms: C18_16  and  C19_17 
REMARK    5  A    between atoms: C19_17  and  C20_18 
REMARK    6  A    between atoms: C20_18  and  C21_19 
REMARK    7  A    between atoms: C21_19  and  C22_20 
REMARK    8  A    between atoms: C22_20  and  C23_21 
REMARK    9  A    between atoms: C23_21  and  C24_22 
REMARK   10  A    between atoms: C24_22  and  C25_23 
REMARK   11  A    between atoms: C25_23  and  S26_24 
REMARK   12  A    between atoms: S26_24  and  C28_26 
REMARK   13  A    between atoms: C28_26  and  C29_27 
REMARK   14  A    between atoms: C29_27  and  C30_28 
REMARK   15  A    between atoms: C30_28  and  C31_29 
REMARK   16  A    between atoms: C31_29  and  C34_32 
REMARK   17  A    between atoms: C44_40  and  O46_41 
ROOT
ATOM      1  C1  ZIN AC000      -0.019   1.526   0.010  0.00  0.00     0.018 C 
ATOM      2  C2  ZIN AC000       0.002  -0.004   0.002  0.00  0.00    -0.014 C 
ATOM      3  C3  ZIN AC000      -1.416  -0.532   0.053  0.00  0.00     0.013 C 
ATOM      4  C4  ZIN AC000      -2.096   0.078   1.294  0.00  0.00     0.010 C 
ATOM      5  C5  ZIN AC000      -1.312  -0.256   2.555  0.00  0.00     0.024 C 
ATOM      6  C7  ZIN AC000      -1.936   0.353   3.777  0.00  0.00    -0.047 A 
ATOM      7  C8  ZIN AC000      -3.318   0.469   3.822  0.00  0.00     0.011 A 
ATOM      8  C9  ZIN AC000      -3.942   1.012   4.925  0.00  0.00     0.037 A 
ATOM      9  C10 ZIN AC000      -3.181   1.446   6.000  0.00  0.00     0.066 A 
ATOM     10  C12 ZIN AC000      -1.802   1.335   5.954  0.00  0.00     0.044 A 
ATOM     11  C13 ZIN AC000      -1.174   0.793   4.840  0.00  0.00    -0.048 A 
ATOM     12  C14 ZIN AC000       0.331   0.731   4.849  0.00  0.00     0.044 C 
ATOM     13  C15 ZIN AC000       0.856  -0.189   3.747  0.00  0.00    -0.005 C 
ATOM     14  C38 ZIN AC000       0.149   0.199   2.448  0.00  0.00     0.003 C 
ATOM     15  C40 ZIN AC000       0.753  -0.522   1.260  0.00  0.00     0.001 C 
ATOM     16  C42 ZIN AC000       2.214  -0.185   0.942  0.00  0.00     0.008 C 
ATOM     17  C43 ZIN AC000       2.336  -0.547  -0.563  0.00  0.00     0.033 C 
ATOM     18  C44 ZIN AC000       0.867  -0.497  -1.152  0.00  0.00     0.126 C 
ENDROOT
BRANCH  13  19
ATOM     19  C17 ZIN AC000       0.552  -1.646   4.103  0.00  0.00     0.005 C 
BRANCH  19  20
ATOM     20  C18 ZIN AC000       1.332  -2.037   5.360  0.00  0.00     0.000 C 
BRANCH  20  21
ATOM     21  C19 ZIN AC000       1.029  -3.494   5.715  0.00  0.00     0.000 C 
BRANCH  21  22
ATOM     22  C20 ZIN AC000       1.809  -3.885   6.972  0.00  0.00     0.000 C 
BRANCH  22  23
ATOM     23  C21 ZIN AC000       1.505  -5.342   7.327  0.00  0.00     0.000 C 
BRANCH  23  24
ATOM     24  C22 ZIN AC000       2.286  -5.734   8.584  0.00  0.00     0.000 C 
BRANCH  24  25
ATOM     25  C23 ZIN AC000       1.982  -7.191   8.940  0.00  0.00     0.001 C 
BRANCH  25  26
ATOM     26  C24 ZIN AC000       2.762  -7.582  10.196  0.00  0.00     0.012 C 
BRANCH  26  27
ATOM     27  C25 ZIN AC000       2.459  -9.039  10.552  0.00  0.00     0.108 C 
BRANCH  27  28
ATOM     28  S26 ZIN AC000       3.384  -9.503  12.041  0.00  0.00     0.014 S 
ATOM     29  O27 ZIN AC000       4.778  -9.435  11.774  0.00  0.00    -0.258 OA
BRANCH  28  30
ATOM     30  C28 ZIN AC000       2.901 -11.232  12.299  0.00  0.00     0.109 C 
BRANCH  30  31
ATOM     31  C29 ZIN AC000       3.609 -11.780  13.540  0.00  0.00     0.019 C 
BRANCH  31  32
ATOM     32  C30 ZIN AC000       3.202 -13.239  13.758  0.00  0.00     0.090 C 
BRANCH  32  33
ATOM     33  C31 ZIN AC000       3.910 -13.786  14.998  0.00  0.00     0.339 C 
ATOM     34  F32 ZIN AC000       5.295 -13.711  14.816  0.00  0.00    -0.196 F 
ATOM     35  F33 ZIN AC000       3.545 -13.028  16.116  0.00  0.00    -0.196 F 
BRANCH  33  36
ATOM     36  C34 ZIN AC000       3.503 -15.245  15.216  0.00  0.00     0.454 C 
ATOM     37  F35 ZIN AC000       3.868 -16.003  14.098  0.00  0.00    -0.165 F 
ATOM     38  F36 ZIN AC000       4.150 -15.746  16.351  0.00  0.00    -0.165 F 
ATOM     39  F37 ZIN AC000       2.118 -15.320  15.398  0.00  0.00    -0.165 F 
ENDBRANCH  33  36
ENDBRANCH  32  33
ENDBRANCH  31  32
ENDBRANCH  30  31
ENDBRANCH  28  30
ENDBRANCH  27  28
ENDBRANCH  26  27
ENDBRANCH  25  26
ENDBRANCH  24  25
ENDBRANCH  23  24
ENDBRANCH  22  23
ENDBRANCH  21  22
ENDBRANCH  20  21
ENDBRANCH  19  20
ENDBRANCH  13  19
BRANCH   9  40
ATOM     40  O11 ZIN AC000      -3.786   1.977   7.095  0.00  0.00    -0.361 OA
ATOM     41  H56 ZIN AC000      -4.014   1.327   7.774  0.00  0.00     0.217 HD
ENDBRANCH   9  40
BRANCH  18  42
ATOM     42  O46 ZIN AC000       0.800   0.430  -2.237  0.00  0.00    -0.395 OA
ATOM     43  H88 ZIN AC000       1.371   0.203  -2.984  0.00  0.00     0.210 HD
ENDBRANCH  18  42
TORSDOF 17
