REMARK  2 active torsions:
REMARK  status: ('A' for Active; 'I' for Inactive)
REMARK    1  A    between atoms: C11_11  and  C12_12 
REMARK    2  A    between atoms: C19_19  and  O21_20 
ROOT
ATOM      1  O1  ZIN AC000       0.491  -0.021   0.057  0.00  0.00    -0.268 OA
ATOM      2  C2  ZIN AC000       0.269   1.171   0.024  0.00  0.00     0.272 C 
ATOM      3  N3  ZIN AC000      -0.988   1.593  -0.086  0.00  0.00    -0.323 N 
ATOM      4  C4  ZIN AC000      -1.387   2.921  -0.079  0.00  0.00     0.047 A 
ATOM      5  C5  ZIN AC000      -2.550   3.237   0.626  0.00  0.00     0.032 A 
ATOM      6  C6  ZIN AC000      -3.011   4.535   0.676  0.00  0.00     0.026 A 
ATOM      7  C7  ZIN AC000      -2.319   5.543   0.024  0.00  0.00     0.035 A 
ATOM      8 Cl8  ZIN AC000      -2.902   7.177   0.089  0.00  0.00    -0.084 Cl
ATOM      9  C9  ZIN AC000      -1.170   5.250  -0.675  0.00  0.00     0.040 A 
ATOM     10  C10 ZIN AC000      -0.689   3.933  -0.735  0.00  0.00     0.022 A 
ATOM     11  C11 ZIN AC000       0.546   3.692  -1.497  0.00  0.00     0.077 C 
ATOM     12  N18 ZIN AC000       1.492   2.900  -1.133  0.00  0.00    -0.247 NA
ATOM     13  C19 ZIN AC000       1.421   2.134   0.116  0.00  0.00     0.335 C 
ATOM     14  H22 ZIN AC000      -1.680   0.919  -0.179  0.00  0.00     0.169 HD
ENDROOT
BRANCH  11  15
ATOM     15  C12 ZIN AC000       0.714   4.417  -2.778  0.00  0.00    -0.007 A 
ATOM     16  C17 ZIN AC000      -0.403   4.882  -3.471  0.00  0.00     0.014 A 
ATOM     17  C16 ZIN AC000      -0.240   5.562  -4.660  0.00  0.00     0.001 A 
ATOM     18  C15 ZIN AC000       1.028   5.772  -5.172  0.00  0.00     0.000 A 
ATOM     19  C14 ZIN AC000       2.140   5.309  -4.492  0.00  0.00     0.001 A 
ATOM     20  C13 ZIN AC000       1.990   4.633  -3.298  0.00  0.00     0.014 A 
ENDBRANCH  11  15
BRANCH  13  21
ATOM     21  O21 ZIN AC000       1.226   3.026   1.215  0.00  0.00    -0.367 OA
ATOM     22  H31 ZIN AC000       1.931   3.679   1.321  0.00  0.00     0.212 HD
ENDBRANCH  13  21
TORSDOF 2
