REMARK  5 active torsions:
REMARK  status: ('A' for Active; 'I' for Inactive)
REMARK    1  A    between atoms: C2_2  and  O4_4 
REMARK    2  A    between atoms: O4_4  and  C5_5 
REMARK    3  A    between atoms: C5_5  and  C6_6 
REMARK    4  A    between atoms: C6_6  and  C8_8 
REMARK    5  A    between atoms: C32_28  and  O34_29 
ROOT
ATOM      1  C8  ZIN AC000       0.188  -4.069  -2.672  0.00  0.00     0.152 C 
ATOM      2  N9  ZIN AC000       0.785  -4.800  -1.539  0.00  0.00    -0.248 NA
ATOM      3  C10 ZIN AC000      -0.138  -5.456  -0.933  0.00  0.00     0.132 C 
ATOM      4  C11 ZIN AC000       0.129  -6.324   0.270  0.00  0.00     0.099 C 
ATOM      5  O12 ZIN AC000      -1.364  -5.302  -1.465  0.00  0.00    -0.330 OA
ATOM      6  C13 ZIN AC000      -1.210  -4.765  -2.793  0.00  0.00     0.169 C 
ATOM      7  C15 ZIN AC000      -1.043  -5.941  -3.784  0.00  0.00     0.041 C 
ATOM      8  C16 ZIN AC000       0.444  -5.983  -4.120  0.00  0.00     0.004 C 
ATOM      9  C18 ZIN AC000       0.805  -6.440  -5.521  0.00  0.00    -0.001 C 
ATOM     10  C20 ZIN AC000       0.308  -7.869  -5.748  0.00  0.00     0.010 C 
ATOM     11  C21 ZIN AC000       0.638  -8.309  -7.178  0.00  0.00     0.036 C 
ATOM     12  C22 ZIN AC000       2.129  -8.130  -7.395  0.00  0.00    -0.064 A 
ATOM     13  C23 ZIN AC000       2.837  -9.147  -7.866  0.00  0.00     0.058 A 
ATOM     14  C24 ZIN AC000       4.288  -9.018  -8.071  0.00  0.00     0.171 A 
ATOM     15  O25 ZIN AC000       4.934  -9.936  -8.539  0.00  0.00    -0.289 OA
ATOM     16  C26 ZIN AC000       4.940  -7.751  -7.699  0.00  0.00     0.052 A 
ATOM     17  C27 ZIN AC000       4.213  -6.746  -7.236  0.00  0.00    -0.009 A 
ATOM     18  C28 ZIN AC000       2.733  -6.797  -7.065  0.00  0.00     0.004 A 
ATOM     19  C29 ZIN AC000       2.116  -5.759  -8.004  0.00  0.00     0.025 C 
ATOM     20  C30 ZIN AC000       2.336  -6.383  -5.646  0.00  0.00     0.035 C 
ATOM     21  C32 ZIN AC000       2.871  -4.983  -5.358  0.00  0.00     0.124 C 
ATOM     22  C35 ZIN AC000       2.394  -4.463  -3.993  0.00  0.00     0.044 C 
ATOM     23  C36 ZIN AC000       0.877  -4.459  -3.982  0.00  0.00    -0.000 C 
ATOM     24  C37 ZIN AC000       0.340  -3.645  -5.161  0.00  0.00     0.019 C 
ENDROOT
BRANCH   1  25
ATOM     25  C6  ZIN AC000       0.112  -2.580  -2.453  0.00  0.00     0.184 C 
ATOM     26  O7  ZIN AC000       0.076  -1.832  -3.401  0.00  0.00    -0.293 OA
BRANCH  25  27
ATOM     27  C5  ZIN AC000       0.079  -2.025  -1.053  0.00  0.00     0.260 C 
BRANCH  27  28
ATOM     28  O4  ZIN AC000       0.005  -0.576  -1.109  0.00  0.00    -0.314 OA
BRANCH  28  29
ATOM     29  C2  ZIN AC000      -0.032   0.078   0.063  0.00  0.00     0.255 C 
ATOM     30  C1  ZIN AC000      -0.108   1.583   0.084  0.00  0.00     0.126 C 
ATOM     31  O3  ZIN AC000      -0.003  -0.540   1.101  0.00  0.00    -0.266 OA
ENDBRANCH  28  29
ENDBRANCH  27  28
ENDBRANCH  25  27
ENDBRANCH   1  25
BRANCH  21  32
ATOM     32  O34 ZIN AC000       2.418  -4.092  -6.379  0.00  0.00    -0.395 OA
ATOM     33  H58 ZIN AC000       2.718  -3.180  -6.266  0.00  0.00     0.210 HD
ENDBRANCH  21  32
TORSDOF 5
