REMARK  2 active torsions:
REMARK  status: ('A' for Active; 'I' for Inactive)
REMARK    1  A    between atoms: N2_2  and  C5_5 
REMARK    2  A    between atoms: C5_5  and  C6_6 
ROOT
ATOM      1  C5  ZIN AC000       0.814  -0.489   1.126  0.00  0.00     0.213 C 
ATOM      2  C13 ZIN AC000       0.951  -2.012   1.032  0.00  0.00     0.052 C 
ATOM      3  C14 ZIN AC000       1.747  -2.374  -0.224  0.00  0.00     0.004 C 
ATOM      4  C15 ZIN AC000       3.168  -1.819  -0.114  0.00  0.00     0.007 C 
ATOM      5  C16 ZIN AC000       3.115  -0.289  -0.062  0.00  0.00     0.081 C 
ATOM      6  C17 ZIN AC000       2.196   0.122   1.067  0.00  0.00     0.167 C 
ATOM      7  O18 ZIN AC000       2.557   0.919   1.900  0.00  0.00    -0.295 OA
ENDROOT
BRANCH   1   8
ATOM      8  N2  ZIN AC000       0.007   0.005   0.002  0.00  0.00    -0.059 N 
ATOM      9  C1  ZIN AC000       0.029   1.474  -0.008  0.00  0.00     0.269 C 
ATOM     10  H3  ZIN AC000      -0.944  -0.317   0.104  0.00  0.00     0.278 HD
ATOM     11  H4  ZIN AC000       0.389  -0.343  -0.864  0.00  0.00     0.278 HD
ENDBRANCH   1   8
BRANCH   1  12
ATOM     12  C6  ZIN AC000       0.151  -0.116   2.427  0.00  0.00     0.007 A 
ATOM     13  C11 ZIN AC000       0.786  -0.379   3.628  0.00  0.00     0.043 A 
ATOM     14  C10 ZIN AC000       0.180  -0.030   4.822  0.00  0.00     0.024 A 
ATOM     15 Cl12 ZIN AC000       2.351  -1.130   3.636  0.00  0.00    -0.084 Cl
ATOM     16  C9  ZIN AC000      -1.066   0.568   4.814  0.00  0.00     0.002 A 
ATOM     17  C8  ZIN AC000      -1.703   0.824   3.615  0.00  0.00     0.001 A 
ATOM     18  C7  ZIN AC000      -1.095   0.482   2.421  0.00  0.00     0.012 A 
ENDBRANCH   1  12
TORSDOF 2
