REMARK  7 active torsions:
REMARK  status: ('A' for Active; 'I' for Inactive)
REMARK    1  A    between atoms: C2_2  and  N4_3 
REMARK    2  A    between atoms: C2_2  and  C20_19 
REMARK    3  A    between atoms: N4_3  and  C7_6 
REMARK    4  A    between atoms: C7_6  and  C8_7 
REMARK    5  A    between atoms: C8_7  and  C9_8 
REMARK    6  A    between atoms: C9_8  and  C10_9 
REMARK    7  A    between atoms: C14_13  and  C15_14 
ROOT
ATOM      1  N4  ZIN AC000       0.713  -0.491   1.192  0.00  0.00    -0.067 N 
ATOM      2  H5  ZIN AC000       0.290  -0.099   2.020  0.00  0.00     0.277 HD
ATOM      3  H6  ZIN AC000       0.655  -1.497   1.230  0.00  0.00     0.277 HD
ENDROOT
BRANCH   1   4
ATOM      4  C2  ZIN AC000       0.002  -0.004   0.002  0.00  0.00     0.215 C 
ATOM      5  C1  ZIN AC000      -0.019   1.526   0.010  0.00  0.00     0.045 C 
BRANCH   4   6
ATOM      6  C20 ZIN AC000      -1.412  -0.526   0.013  0.00  0.00    -0.017 A 
ATOM      7  C29 ZIN AC000      -2.007  -0.865   1.189  0.00  0.00     0.010 A 
ATOM      8  C28 ZIN AC000      -3.315  -1.344   1.219  0.00  0.00     0.002 A 
ATOM      9  C27 ZIN AC000      -4.032  -1.496   0.072  0.00  0.00     0.012 A 
ATOM     10  C26 ZIN AC000      -3.449  -1.162  -1.162  0.00  0.00    -0.025 A 
ATOM     11  C21 ZIN AC000      -2.120  -0.670  -1.192  0.00  0.00    -0.018 A 
ATOM     12  C25 ZIN AC000      -4.158  -1.305  -2.367  0.00  0.00     0.012 A 
ATOM     13  C22 ZIN AC000      -1.537  -0.336  -2.426  0.00  0.00     0.013 A 
ATOM     14  C23 ZIN AC000      -2.254  -0.489  -3.573  0.00  0.00     0.001 A 
ATOM     15  C24 ZIN AC000      -3.561  -0.972  -3.543  0.00  0.00     0.001 A 
ENDBRANCH   4   6
ENDBRANCH   1   4
BRANCH   1  16
ATOM     16  C7  ZIN AC000       2.122  -0.083   1.122  0.00  0.00     0.233 C 
BRANCH  16  17
ATOM     17  C8  ZIN AC000       2.862  -0.589   2.361  0.00  0.00     0.032 C 
BRANCH  17  18
ATOM     18  C9  ZIN AC000       4.330  -0.164   2.288  0.00  0.00     0.040 C 
BRANCH  18  19
ATOM     19  C10 ZIN AC000       5.059  -0.663   3.509  0.00  0.00    -0.057 A 
ATOM     20  C19 ZIN AC000       5.659  -1.909   3.495  0.00  0.00     0.023 A 
ATOM     21  C14 ZIN AC000       6.331  -2.365   4.614  0.00  0.00     0.048 A 
ATOM     22  C13 ZIN AC000       6.396  -1.579   5.749  0.00  0.00     0.016 A 
ATOM     23  C12 ZIN AC000       5.791  -0.337   5.765  0.00  0.00     0.001 A 
ATOM     24  C11 ZIN AC000       5.122   0.121   4.645  0.00  0.00     0.007 A 
BRANCH  21  25
ATOM     25  C15 ZIN AC000       6.990  -3.720   4.596  0.00  0.00     0.417 C 
ATOM     26  F16 ZIN AC000       7.599  -3.959   5.833  0.00  0.00    -0.166 F 
ATOM     27  F17 ZIN AC000       6.027  -4.704   4.352  0.00  0.00    -0.166 F 
ATOM     28  F18 ZIN AC000       7.958  -3.755   3.586  0.00  0.00    -0.166 F 
ENDBRANCH  21  25
ENDBRANCH  18  19
ENDBRANCH  17  18
ENDBRANCH  16  17
ENDBRANCH   1  16
TORSDOF 7
