REMARK  5 active torsions:
REMARK  status: ('A' for Active; 'I' for Inactive)
REMARK    1  A    between atoms: N2_2  and  C5_5 
REMARK    2  A    between atoms: C5_5  and  C6_6 
REMARK    3  A    between atoms: C6_6  and  C7_7 
REMARK    4  A    between atoms: C7_7  and  C9_8 
REMARK    5  A    between atoms: C7_7  and  C16_15 
ROOT
ATOM      1  C7  ZIN AC000      -3.513  -0.640  -1.275  0.00  0.00     0.072 C 
ENDROOT
BRANCH   1   2
ATOM      2  C6  ZIN AC000      -2.080  -0.123  -1.138  0.00  0.00     0.043 C 
BRANCH   2   3
ATOM      3  C5  ZIN AC000      -1.520  -0.527   0.227  0.00  0.00     0.235 C 
BRANCH   3   4
ATOM      4  N2  ZIN AC000      -0.144  -0.031   0.359  0.00  0.00    -0.079 N 
ATOM      5  C1  ZIN AC000      -0.151   1.438   0.361  0.00  0.00     0.269 C 
ATOM      6  H3  ZIN AC000       0.409  -0.363  -0.417  0.00  0.00     0.278 HD
ATOM      7  C4  ZIN AC000       0.435  -0.520   1.617  0.00  0.00     0.269 C 
ENDBRANCH   3   4
ENDBRANCH   2   3
ENDBRANCH   1   2
BRANCH   1   8
ATOM      8  C9  ZIN AC000      -4.107  -0.138  -2.567  0.00  0.00    -0.048 A 
ATOM      9  C15 ZIN AC000      -5.304   0.553  -2.554  0.00  0.00     0.009 A 
ATOM     10  C14 ZIN AC000      -5.846   1.018  -3.737  0.00  0.00     0.024 A 
ATOM     11  C12 ZIN AC000      -5.196   0.782  -4.936  0.00  0.00     0.034 A 
ATOM     12  C11 ZIN AC000      -4.001   0.085  -4.948  0.00  0.00     0.024 A 
ATOM     13 Cl13 ZIN AC000      -5.880   1.359  -6.423  0.00  0.00    -0.084 Cl
ATOM     14  C10 ZIN AC000      -3.457  -0.374  -3.763  0.00  0.00     0.009 A 
ENDBRANCH   1   8
BRANCH   1  15
ATOM     15  C16 ZIN AC000      -3.506  -2.147  -1.278  0.00  0.00     0.042 A 
ATOM     16  N21 ZIN AC000      -4.485  -2.804  -0.688  0.00  0.00    -0.265 NA
ATOM     17  C20 ZIN AC000      -4.523  -4.122  -0.669  0.00  0.00     0.117 A 
ATOM     18  C19 ZIN AC000      -3.521  -4.867  -1.264  0.00  0.00     0.019 A 
ATOM     19  C18 ZIN AC000      -2.472  -4.210  -1.889  0.00  0.00     0.003 A 
ATOM     20  C17 ZIN AC000      -2.470  -2.824  -1.893  0.00  0.00     0.028 A 
ENDBRANCH   1  15
TORSDOF 5
