REMARK  7 active torsions:
REMARK  status: ('A' for Active; 'I' for Inactive)
REMARK    1  A    between atoms: O2_2  and  C3_3 
REMARK       I    between atoms: C3_3  and  N5_5 
REMARK    2  A    between atoms: N5_5  and  C7_7 
REMARK    3  A    between atoms: C8_8  and  N9_9 
REMARK    4  A    between atoms: C11_11  and  C12_12 
REMARK    5  A    between atoms: N14_14  and  C15_15 
REMARK    6  A    between atoms: C15_15  and  C16_16 
REMARK    7  A    between atoms: C30_30  and  N31_31 
ROOT
ATOM      1  C7  ZIN AC000      -2.485  -2.633   0.012  0.00  0.00     0.130 A 
ATOM      2  C8  ZIN AC000      -3.109  -2.968   1.216  0.00  0.00     0.154 A 
ATOM      3  N10 ZIN AC000      -4.285  -3.587   1.183  0.00  0.00    -0.207 NA
ATOM      4  C11 ZIN AC000      -4.864  -3.887   0.028  0.00  0.00     0.185 A 
ATOM      5  N29 ZIN AC000      -4.302  -3.584  -1.135  0.00  0.00    -0.207 NA
ATOM      6  C30 ZIN AC000      -3.129  -2.960  -1.184  0.00  0.00     0.154 A 
ENDROOT
BRANCH   4   7
ATOM      7  C12 ZIN AC000      -6.174  -4.577   0.036  0.00  0.00     0.139 A 
ATOM      8  C28 ZIN AC000      -6.950  -4.980  -1.140  0.00  0.00     0.046 A 
ATOM      9  C23 ZIN AC000      -8.117  -5.601  -0.654  0.00  0.00     0.158 A 
ATOM     10  C27 ZIN AC000      -6.749  -4.884  -2.519  0.00  0.00     0.019 A 
ATOM     11  N14 ZIN AC000      -8.045  -5.562   0.713  0.00  0.00    -0.246 N 
ATOM     12  N24 ZIN AC000      -9.016  -6.077  -1.507  0.00  0.00    -0.241 NA
ATOM     13  N13 ZIN AC000      -6.856  -4.935   1.098  0.00  0.00    -0.166 NA
ATOM     14  C25 ZIN AC000      -8.843  -5.988  -2.808  0.00  0.00     0.119 A 
ATOM     15  C26 ZIN AC000      -7.713  -5.394  -3.351  0.00  0.00     0.020 A 
BRANCH  11  16
ATOM     16  C15 ZIN AC000      -9.057  -6.093   1.629  0.00  0.00     0.195 C 
BRANCH  16  17
ATOM     17  C16 ZIN AC000     -10.065  -5.018   1.942  0.00  0.00     0.000 A 
ATOM     18  C21 ZIN AC000     -11.138  -4.806   1.091  0.00  0.00     0.124 A 
ATOM     19  C20 ZIN AC000     -12.067  -3.822   1.383  0.00  0.00     0.043 A 
ATOM     20  F22 ZIN AC000     -11.284  -5.567  -0.015  0.00  0.00    -0.205 F 
ATOM     21  C19 ZIN AC000     -11.917  -3.044   2.516  0.00  0.00     0.003 A 
ATOM     22  C18 ZIN AC000     -10.843  -3.252   3.360  0.00  0.00     0.001 A 
ATOM     23  C17 ZIN AC000      -9.918  -4.239   3.073  0.00  0.00     0.012 A 
ENDBRANCH  16  17
ENDBRANCH  11  16
ENDBRANCH   4   7
BRANCH   2  24
ATOM     24  N9  ZIN AC000      -2.510  -2.658   2.430  0.00  0.00    -0.382 N 
ATOM     25  H38 ZIN AC000      -1.652  -2.206   2.446  0.00  0.00     0.157 HD
ATOM     26  H39 ZIN AC000      -2.950  -2.894   3.262  0.00  0.00     0.157 HD
ENDBRANCH   2  24
BRANCH   6  27
ATOM     27  N31 ZIN AC000      -2.548  -2.648  -2.406  0.00  0.00    -0.382 N 
ATOM     28  H49 ZIN AC000      -2.998  -2.885  -3.232  0.00  0.00     0.157 HD
ATOM     29  H50 ZIN AC000      -1.692  -2.192  -2.433  0.00  0.00     0.157 HD
ENDBRANCH   6  27
BRANCH   1  30
ATOM     30  N5  ZIN AC000      -1.242  -1.978   0.003  0.00  0.00    -0.291 N 
ATOM     31  C3  ZIN AC000      -1.189  -0.632   0.010  0.00  0.00     0.366 C 
ATOM     32  O4  ZIN AC000      -2.217   0.016   0.023  0.00  0.00    -0.238 OA
ATOM     33  C6  ZIN AC000      -0.002  -2.760  -0.013  0.00  0.00     0.162 C 
BRANCH  31  34
ATOM     34  O2  ZIN AC000       0.002  -0.004   0.002  0.00  0.00    -0.309 OA
ATOM     35  C1  ZIN AC000      -0.018   1.448   0.010  0.00  0.00     0.215 C 
ENDBRANCH  31  34
ENDBRANCH   1  30
TORSDOF 7
