REMARK  7 active torsions:
REMARK  status: ('A' for Active; 'I' for Inactive)
REMARK    1  A    between atoms: C2_2  and  C3_3 
REMARK    2  A    between atoms: C3_3  and  C4_4 
REMARK    3  A    between atoms: C11_11  and  C12_12 
REMARK    4  A    between atoms: N24_24  and  C25_25 
REMARK    5  A    between atoms: C25_25  and  C26_26 
REMARK    6  A    between atoms: C29_29  and  C30_30 
REMARK    7  A    between atoms: C35_35  and  C36_36 
ROOT
ATOM      1  C4  ZIN AC000       1.032  -1.472  -1.636  0.00  0.00     0.084 A 
ATOM      2  N5  ZIN AC000      -0.117  -2.019  -1.910  0.00  0.00    -0.344 N 
ATOM      3  H6  ZIN AC000      -0.915  -1.537  -2.179  0.00  0.00     0.167 HD
ATOM      4  C7  ZIN AC000      -0.030  -3.365  -1.765  0.00  0.00     0.066 A 
ATOM      5  C8  ZIN AC000      -0.944  -4.411  -1.929  0.00  0.00    -0.032 A 
ATOM      6  C9  ZIN AC000      -2.359  -4.114  -2.355  0.00  0.00     0.050 C 
ATOM      7  C10 ZIN AC000      -0.556  -5.698  -1.705  0.00  0.00     0.024 A 
ATOM      8  C11 ZIN AC000       0.755  -5.987  -1.308  0.00  0.00     0.013 A 
ATOM      9  C22 ZIN AC000       1.678  -4.958  -1.141  0.00  0.00     0.047 A 
ATOM     10  C23 ZIN AC000       1.290  -3.648  -1.368  0.00  0.00     0.064 A 
ATOM     11  N24 ZIN AC000       1.937  -2.429  -1.300  0.00  0.00    -0.330 N 
ENDROOT
BRANCH  11  12
ATOM     12  C25 ZIN AC000       3.338  -2.209  -0.933  0.00  0.00     0.169 C 
BRANCH  12  13
ATOM     13  C26 ZIN AC000       4.196  -2.259  -2.172  0.00  0.00    -0.040 A 
ATOM     14  C40 ZIN AC000       4.441  -1.100  -2.887  0.00  0.00     0.010 A 
ATOM     15  C39 ZIN AC000       5.229  -1.139  -4.019  0.00  0.00     0.013 A 
ATOM     16  C29 ZIN AC000       5.771  -2.350  -4.447  0.00  0.00    -0.025 A 
ATOM     17  C28 ZIN AC000       5.516  -3.516  -3.725  0.00  0.00     0.013 A 
ATOM     18  C27 ZIN AC000       4.730  -3.464  -2.592  0.00  0.00     0.010 A 
BRANCH  16  19
ATOM     19  C30 ZIN AC000       6.613  -2.399  -5.665  0.00  0.00    -0.009 A 
ATOM     20  C35 ZIN AC000       6.111  -1.928  -6.893  0.00  0.00     0.051 A 
ATOM     21  C34 ZIN AC000       6.919  -1.976  -8.031  0.00  0.00     0.019 A 
ATOM     22  C33 ZIN AC000       8.195  -2.492  -7.948  0.00  0.00     0.001 A 
ATOM     23  C32 ZIN AC000       8.686  -2.960  -6.740  0.00  0.00     0.001 A 
ATOM     24  C31 ZIN AC000       7.904  -2.916  -5.603  0.00  0.00     0.013 A 
BRANCH  20  25
ATOM     25  C36 ZIN AC000       4.747  -1.379  -6.975  0.00  0.00     0.210 C 
ATOM     26  O37 ZIN AC000       3.800  -2.029  -6.554  0.00  0.00    -0.644 OA
ATOM     27  O38 ZIN AC000       4.562  -0.273  -7.463  0.00  0.00    -0.644 OA
ENDBRANCH  20  25
ENDBRANCH  16  19
ENDBRANCH  12  13
ENDBRANCH  11  12
BRANCH   1  28
ATOM     28  C3  ZIN AC000       1.319   0.006  -1.688  0.00  0.00     0.076 C 
BRANCH  28  29
ATOM     29  C2  ZIN AC000       0.915   0.651  -0.360  0.00  0.00     0.003 C 
ATOM     30  C1  ZIN AC000       1.206   2.152  -0.413  0.00  0.00     0.005 C 
ENDBRANCH  28  29
ENDBRANCH   1  28
BRANCH   8  31
ATOM     31  C12 ZIN AC000       1.161  -7.388  -1.069  0.00  0.00     0.141 A 
ATOM     32  N20 ZIN AC000       0.503  -8.491  -1.543  0.00  0.00    -0.333 N 
ATOM     33  C19 ZIN AC000       1.198  -9.601  -1.104  0.00  0.00     0.064 A 
ATOM     34  C21 ZIN AC000      -0.709  -8.493  -2.366  0.00  0.00     0.158 C 
ATOM     35  C14 ZIN AC000       2.280  -9.114  -0.349  0.00  0.00     0.086 A 
ATOM     36  C18 ZIN AC000       1.025 -10.969  -1.263  0.00  0.00     0.032 A 
ATOM     37  N13 ZIN AC000       2.202  -7.761  -0.365  0.00  0.00    -0.228 NA
ATOM     38  C15 ZIN AC000       3.172 -10.018   0.237  0.00  0.00     0.034 A 
ATOM     39  C16 ZIN AC000       2.983 -11.371   0.069  0.00  0.00     0.002 A 
ATOM     40  C17 ZIN AC000       1.914 -11.846  -0.677  0.00  0.00     0.002 A 
ENDBRANCH   8  31
TORSDOF 7
