REMARK  3 active torsions:
REMARK  status: ('A' for Active; 'I' for Inactive)
REMARK       I    between atoms: C2_2  and  N4_4 
REMARK    1  A    between atoms: N4_4  and  C5_5 
REMARK    2  A    between atoms: C8_8  and  N9_9 
REMARK       I    between atoms: N9_9  and  C10_10 
REMARK    3  A    between atoms: C15_15  and  C16_16 
ROOT
ATOM      1  C5  ZIN AC000      -0.652  -2.388  -1.206  0.00  0.00     0.071 A 
ATOM      2  C6  ZIN AC000      -0.240  -3.083  -2.335  0.00  0.00     0.062 A 
ATOM      3  I7  ZIN AC000      -0.951  -2.521  -4.224  0.00  0.00    -0.040 I 
ATOM      4  C8  ZIN AC000       0.643  -4.149  -2.216  0.00  0.00     0.071 A 
ATOM      5  C13 ZIN AC000       1.116  -4.524  -0.968  0.00  0.00     0.053 A 
ATOM      6  I14 ZIN AC000       2.448  -6.131  -0.791  0.00  0.00    -0.041 I 
ATOM      7  C15 ZIN AC000       0.703  -3.828   0.171  0.00  0.00     0.078 A 
ATOM      8  C19 ZIN AC000      -0.181  -2.753   0.046  0.00  0.00     0.053 A 
ATOM      9  I20 ZIN AC000      -0.805  -1.704   1.749  0.00  0.00    -0.041 I 
ENDROOT
BRANCH   1  10
ATOM     10  N4  ZIN AC000      -1.542  -1.314  -1.332  0.00  0.00    -0.325 N 
ATOM     11  C2  ZIN AC000      -2.678  -1.291  -0.607  0.00  0.00     0.218 C 
ATOM     12  C1  ZIN AC000      -3.587  -0.091  -0.669  0.00  0.00     0.117 C 
ATOM     13  O3  ZIN AC000      -2.969  -2.237   0.094  0.00  0.00    -0.274 OA
ATOM     14  H24 ZIN AC000      -1.340  -0.586  -1.940  0.00  0.00     0.169 HD
ENDBRANCH   1  10
BRANCH   7  15
ATOM     15  C16 ZIN AC000       1.203  -4.223   1.501  0.00  0.00     0.212 C 
ATOM     16  O17 ZIN AC000       1.981  -5.162   1.607  0.00  0.00    -0.644 OA
ATOM     17  O18 ZIN AC000       0.841  -3.613   2.497  0.00  0.00    -0.644 OA
ENDBRANCH   7  15
BRANCH   4  18
ATOM     18  N9  ZIN AC000       1.056  -4.845  -3.359  0.00  0.00    -0.325 N 
ATOM     19  C10 ZIN AC000       0.793  -6.161  -3.478  0.00  0.00     0.218 C 
ATOM     20  C11 ZIN AC000       1.141  -6.887  -4.752  0.00  0.00     0.117 C 
ATOM     21  O12 ZIN AC000       0.275  -6.762  -2.560  0.00  0.00    -0.274 OA
ATOM     22  H25 ZIN AC000       1.532  -4.380  -4.065  0.00  0.00     0.169 HD
ENDBRANCH   4  18
TORSDOF 3
