REMARK  3 active torsions:
REMARK  status: ('A' for Active; 'I' for Inactive)
REMARK    1  A    between atoms: C3_3  and  C4_4 
REMARK       I    between atoms: C4_4  and  N6_6 
REMARK    2  A    between atoms: N6_6  and  C7_7 
REMARK    3  A    between atoms: C10_10  and  C11_11 
ROOT
ATOM      1  C7  <0> d          -4.792  -1.076  -0.071  0.00  0.00     0.035 A 
ATOM      2  C8  <0> d          -5.124   0.270  -0.163  0.00  0.00     0.030 A 
ATOM      3  C9  <0> d          -6.450   0.649  -0.244  0.00  0.00     0.018 A 
ATOM      4  C10 <0> d          -7.446  -0.310  -0.233  0.00  0.00     0.048 A 
ATOM      5  C15 <0> d          -7.119  -1.651  -0.142  0.00  0.00     0.018 A 
ATOM      6  C16 <0> d          -5.795  -2.036  -0.066  0.00  0.00     0.030 A 
ENDROOT
BRANCH   1   7
ATOM      7  N6  <0> d          -3.450  -1.463   0.010  0.00  0.00    -0.323 N 
ATOM      8  C4  <0> d          -3.040  -2.601  -0.584  0.00  0.00     0.260 C 
ATOM      9  O5  <0> d          -3.850  -3.334  -1.118  0.00  0.00    -0.267 OA
ATOM     10  H23 <0> d          -2.815  -0.912   0.494  0.00  0.00     0.169 HD
BRANCH   8  11
ATOM     11  C3  <0> d          -1.610  -2.957  -0.586  0.00  0.00     0.083 A 
ATOM     12  C2  <0> d          -1.003  -4.061  -1.132  0.00  0.00     0.092 A 
ATOM     13  C1  <0> d          -1.677  -5.189  -1.872  0.00  0.00     0.080 C 
ATOM     14  O19 <0> d           0.301  -3.941  -0.873  0.00  0.00    -0.217 OA
ATOM     15  N18 <0> d           0.572  -2.935  -0.264  0.00  0.00    -0.140 NA
ATOM     16  C17 <0> d          -0.480  -2.217  -0.002  0.00  0.00     0.166 A 
ENDBRANCH   8  11
ENDBRANCH   1   7
BRANCH   4  17
ATOM     17  C11 <0> d          -8.892   0.107  -0.321  0.00  0.00     0.417 C 
ATOM     18  F12 <0> d          -9.281   0.161  -1.663  0.00  0.00    -0.166 F 
ATOM     19  F13 <0> d          -9.687  -0.822   0.359  0.00  0.00    -0.166 F 
ATOM     20  F14 <0> d          -9.049   1.369   0.261  0.00  0.00    -0.166 F 
ENDBRANCH   4  17
TORSDOF 3
