REMARK  4 active torsions:
REMARK  status: ('A' for Active; 'I' for Inactive)
REMARK    1  A    between atoms: C2_2  and  O4_4 
REMARK    2  A    between atoms: O4_4  and  C5_5 
REMARK    3  A    between atoms: C5_5  and  C8_7 
REMARK    4  A    between atoms: C8_7  and  N9_8 
ROOT
ATOM      1  C5  <0> d          -1.111  -2.355   0.032  0.00  0.00     0.153 C 
ATOM      2  C7  <0> d          -1.114  -3.015   1.412  0.00  0.00     0.042 C 
ENDROOT
BRANCH   1   3
ATOM      3  O4  <0> d          -1.039  -0.913   0.184  0.00  0.00    -0.315 OA
BRANCH   3   4
ATOM      4  C2  <0> d           0.186  -0.365   0.224  0.00  0.00     0.255 C 
ATOM      5  C1  <0> d           0.340   1.126   0.380  0.00  0.00     0.126 C 
ATOM      6  O3  <0> d           1.165  -1.067   0.133  0.00  0.00    -0.266 OA
ENDBRANCH   3   4
ENDBRANCH   1   3
BRANCH   1   7
ATOM      7  C8  <0> d          -2.396  -2.725  -0.713  0.00  0.00     0.268 C 
BRANCH   7   8
ATOM      8  N9  <0> d          -2.321  -2.231  -2.094  0.00  0.00    -0.076 N 
ATOM      9  C10 <0> d          -1.097  -2.738  -2.730  0.00  0.00     0.271 C 
ATOM     10  C11 <0> d          -3.493  -2.699  -2.846  0.00  0.00     0.271 C 
ATOM     11  C12 <0> d          -2.297  -0.762  -2.088  0.00  0.00     0.271 C 
ENDBRANCH   7   8
ENDBRANCH   1   7
TORSDOF 4
