REMARK  4 active torsions:
REMARK  status: ('A' for Active; 'I' for Inactive)
REMARK    1  A    between atoms: N2_2  and  C5_5 
REMARK    2  A    between atoms: C5_5  and  C6_6 
REMARK    3  A    between atoms: C6_6  and  C7_7 
REMARK    4  A    between atoms: C7_7  and  C8_8 
ROOT
ATOM      1  C8  <0> d           1.491  -4.051   2.289  0.00  0.00     0.015 C 
ATOM      2  C9  <0> d           2.141  -4.759   3.499  0.00  0.00     0.020 C 
ATOM      3  C10 <0> d           2.126  -6.276   3.328  0.00  0.00     0.015 C 
ATOM      4  C11 <0> d           1.466  -6.684   1.992  0.00  0.00     0.052 C 
ATOM      5  C12 <0> d           0.087  -6.041   2.013  0.00  0.00    -0.042 A 
ATOM      6  C13 <0> d          -1.092  -6.719   1.891  0.00  0.00     0.008 A 
ATOM      7  C14 <0> d          -2.282  -6.003   1.926  0.00  0.00     0.001 A 
ATOM      8  C15 <0> d          -2.268  -4.629   2.082  0.00  0.00     0.001 A 
ATOM      9  C16 <0> d          -1.065  -3.946   2.204  0.00  0.00     0.009 A 
ATOM     10  C17 <0> d           0.101  -4.656   2.169  0.00  0.00    -0.038 A 
ATOM     11  C18 <0> d           2.239  -5.938   0.916  0.00  0.00    -0.042 A 
ATOM     12  C19 <0> d           2.881  -6.528  -0.135  0.00  0.00     0.008 A 
ATOM     13  C20 <0> d           3.550  -5.723  -1.048  0.00  0.00     0.001 A 
ATOM     14  C21 <0> d           3.564  -4.350  -0.892  0.00  0.00     0.001 A 
ATOM     15  C22 <0> d           2.908  -3.756   0.179  0.00  0.00     0.009 A 
ATOM     16  C23 <0> d           2.245  -4.533   1.060  0.00  0.00    -0.038 A 
ENDROOT
BRANCH   1  17
ATOM     17  C7  <0> d           1.473  -2.527   2.423  0.00  0.00     0.021 C 
BRANCH  17  18
ATOM     18  C6  <0> d           2.892  -2.023   2.692  0.00  0.00     0.029 C 
BRANCH  18  19
ATOM     19  C5  <0> d           2.898  -0.493   2.694  0.00  0.00     0.231 C 
BRANCH  19  20
ATOM     20  N2  <0> d           4.260  -0.008   2.953  0.00  0.00    -0.079 N 
ATOM     21  C1  <0> d           4.265   1.461   2.955  0.00  0.00     0.266 C 
ATOM     22  H3  <0> d           4.880  -0.346   2.232  0.00  0.00     0.276 HD
ATOM     23  H4  <0> d           4.573  -0.347   3.850  0.00  0.00     0.276 HD
ENDBRANCH  19  20
ENDBRANCH  18  19
ENDBRANCH  17  18
ENDBRANCH   1  17
TORSDOF 4
