REMARK  2 active torsions:
REMARK  status: ('A' for Active; 'I' for Inactive)
REMARK    1  A    between atoms: C5_5  and  N6_6 
REMARK       I    between atoms: N6_6  and  C7_7 
REMARK    2  A    between atoms: C7_7  and  C9_9 
ROOT
ATOM      1  C9  <0> d           0.521  -6.105   0.055  0.00  0.00     0.150 C 
ATOM      2  C10 <0> d           1.846  -6.350   0.148  0.00  0.00     0.152 C 
ATOM      3  O11 <0> d           2.688  -5.287   0.146  0.00  0.00    -0.189 OA
ATOM      4  C12 <0> d           2.435  -7.691   0.252  0.00  0.00     0.026 A 
ATOM      5  C13 <0> d           3.758  -7.851   0.676  0.00  0.00     0.016 A 
ATOM      6  C14 <0> d           4.301  -9.115   0.771  0.00  0.00     0.001 A 
ATOM      7  C15 <0> d           3.546 -10.229   0.450  0.00  0.00     0.002 A 
ATOM      8  C16 <0> d           2.233 -10.083   0.028  0.00  0.00     0.026 A 
ATOM      9  C17 <0> d           1.684  -8.828  -0.070  0.00  0.00     0.093 A 
ATOM     10  S18 <0> d           0.017  -8.603  -0.609  0.00  0.00     0.266 S 
ATOM     11  O19 <0> d           0.060  -8.432  -2.019  0.00  0.00    -0.200 OA
ATOM     12  O20 <0> d          -0.762  -9.600   0.037  0.00  0.00    -0.200 OA
ATOM     13  N21 <0> d          -0.438  -7.136   0.047  0.00  0.00    -0.268 N 
ATOM     14  C22 <0> d          -1.784  -6.930   0.586  0.00  0.00     0.170 C 
ENDROOT
BRANCH   1  15
ATOM     15  C7  <0> d           0.079  -4.761  -0.033  0.00  0.00     0.278 C 
ATOM     16  N6  <0> d          -1.101  -4.476  -0.619  0.00  0.00    -0.300 N 
ATOM     17  H28 <0> d          -1.610  -5.180  -1.050  0.00  0.00     0.171 HD
ATOM     18  O8  <0> d           0.766  -3.863   0.421  0.00  0.00    -0.265 OA
BRANCH  16  19
ATOM     19  C5  <0> d          -1.587  -3.175  -0.606  0.00  0.00     0.173 A 
ATOM     20  N4  <0> d          -0.988  -2.164  -0.059  0.00  0.00    -0.236 NA
ATOM     21  C3  <0> d          -1.594  -0.995  -0.140  0.00  0.00     0.133 A 
ATOM     22  C2  <0> d          -2.762  -1.019  -0.786  0.00  0.00    -0.000 A 
ATOM     23  C1  <0> d          -3.665   0.163  -1.027  0.00  0.00     0.058 C 
ATOM     24  S23 <0> d          -3.066  -2.676  -1.302  0.00  0.00    -0.056 SA
ENDBRANCH  16  19
ENDBRANCH   1  15
TORSDOF 2
