REMARK  7 active torsions:
REMARK  status: ('A' for Active; 'I' for Inactive)
REMARK    1  A    between atoms: C2_2  and  C3_3 
REMARK    2  A    between atoms: C3_3  and  C4_4 
REMARK    3  A    between atoms: C4_4  and  O5_5 
REMARK    4  A    between atoms: O5_5  and  C6_6 
REMARK    5  A    between atoms: C6_6  and  C7_7 
REMARK    6  A    between atoms: C10_10  and  O11_11 
REMARK    7  A    between atoms: C12_12  and  O13_13 
ROOT
ATOM      1  C7  ZIN AC000       2.204  -4.283  -3.817  0.00  0.00    -0.032 A 
ATOM      2  C8  ZIN AC000       1.492  -4.459  -4.988  0.00  0.00     0.012 A 
ATOM      3  C9  ZIN AC000       2.148  -4.800  -6.156  0.00  0.00     0.040 A 
ATOM      4  C10 ZIN AC000       3.524  -4.967  -6.154  0.00  0.00     0.099 A 
ATOM      5  C12 ZIN AC000       4.241  -4.790  -4.974  0.00  0.00     0.101 A 
ATOM      6  C15 ZIN AC000       3.577  -4.442  -3.809  0.00  0.00     0.049 A 
ENDROOT
BRANCH   1   7
ATOM      7  C6  ZIN AC000       1.483  -3.911  -2.547  0.00  0.00     0.206 C 
BRANCH   7   8
ATOM      8  O5  ZIN AC000       1.408  -2.488  -2.441  0.00  0.00    -0.387 OA
BRANCH   8   9
ATOM      9  C4  ZIN AC000       0.739  -2.027  -1.265  0.00  0.00     0.168 C 
BRANCH   9  10
ATOM     10  C3  ZIN AC000       0.718  -0.497  -1.257  0.00  0.00     0.026 C 
BRANCH  10  11
ATOM     11  C2  ZIN AC000       0.002  -0.004   0.002  0.00  0.00    -0.002 C 
ATOM     12  C1  ZIN AC000      -0.019   1.526   0.010  0.00  0.00     0.005 C 
ENDBRANCH  10  11
ENDBRANCH   9  10
ENDBRANCH   8   9
ENDBRANCH   7   8
ENDBRANCH   1   7
BRANCH   5  13
ATOM     13  O13 ZIN AC000       5.591  -4.952  -4.967  0.00  0.00    -0.353 OA
ATOM     14  C14 ZIN AC000       6.262  -4.754  -3.720  0.00  0.00     0.210 C 
ENDBRANCH   5  13
BRANCH   4  15
ATOM     15  O11 ZIN AC000       4.171  -5.303  -7.301  0.00  0.00    -0.358 OA
ATOM     16  H29 ZIN AC000       4.463  -4.543  -7.825  0.00  0.00     0.217 HD
ENDBRANCH   4  15
TORSDOF 7
