REMARK  13 active torsions:
REMARK  status: ('A' for Active; 'I' for Inactive)
REMARK    1  A    between atoms: N2_2  and  C5_5 
REMARK    2  A    between atoms: C5_5  and  C8_7 
REMARK    3  A    between atoms: C12_10  and  N14_11 
REMARK    4  A    between atoms: C18_15  and  O20_16 
REMARK    5  A    between atoms: O20_16  and  C21_17 
REMARK    6  A    between atoms: C23_18  and  N25_19 
REMARK    7  A    between atoms: C30_24  and  N32_25 
REMARK    8  A    between atoms: C36_29  and  O38_30 
REMARK    9  A    between atoms: O38_30  and  C39_31 
REMARK   10  A    between atoms: C43_34  and  O45_36 
REMARK   11  A    between atoms: C46_37  and  N48_38 
REMARK   12  A    between atoms: C52_42  and  O54_43 
REMARK   13  A    between atoms: C55_44  and  O57_45 
ROOT
ATOM      1  C21 ZIN AC000      -3.687  -4.689  -0.639  0.00  0.00     0.186 C 
ATOM      2  C23 ZIN AC000      -5.042  -5.282  -1.030  0.00  0.00     0.217 C 
ATOM      3  C29 ZIN AC000      -5.491  -4.692  -2.368  0.00  0.00     0.071 C 
ATOM      4  C30 ZIN AC000      -5.617  -3.173  -2.238  0.00  0.00     0.217 C 
ATOM      5  C36 ZIN AC000      -4.263  -2.579  -1.847  0.00  0.00     0.186 C 
ATOM      6  C55 ZIN AC000      -3.814  -3.170  -0.509  0.00  0.00     0.180 C 
ENDROOT
BRANCH   1   7
ATOM      7  O20 ZIN AC000      -2.722  -5.002  -1.645  0.00  0.00    -0.349 OA
BRANCH   7   8
ATOM      8  C18 ZIN AC000      -1.553  -5.655  -1.146  0.00  0.00     0.291 C 
ATOM      9  C12 ZIN AC000      -0.741  -6.214  -2.317  0.00  0.00     0.238 C 
ATOM     10  C11 ZIN AC000       0.540  -6.859  -1.779  0.00  0.00     0.040 C 
ATOM     11  C10 ZIN AC000       1.323  -5.818  -0.973  0.00  0.00     0.036 C 
ATOM     12  C8  ZIN AC000       0.431  -5.274   0.146  0.00  0.00     0.155 C 
ATOM     13  O58 ZIN AC000      -0.756  -4.716  -0.421  0.00  0.00    -0.352 OA
BRANCH   9  14
ATOM     14  N14 ZIN AC000      -0.392  -5.124  -3.239  0.00  0.00    -0.070 N 
ATOM     15  H15 ZIN AC000       0.111  -5.500  -4.029  0.00  0.00     0.274 HD
ATOM     16  H16 ZIN AC000      -1.235  -4.673  -3.561  0.00  0.00     0.274 HD
ATOM     17  H17 ZIN AC000       0.188  -4.452  -2.760  0.00  0.00     0.274 HD
ENDBRANCH   9  14
BRANCH  12  18
ATOM     18  C5  ZIN AC000       1.186  -4.190   0.918  0.00  0.00     0.210 C 
ATOM     19  C7  ZIN AC000       1.453  -2.999  -0.004  0.00  0.00     0.042 C 
BRANCH  18  20
ATOM     20  N2  ZIN AC000       0.377  -3.752   2.063  0.00  0.00    -0.073 N 
ATOM     21  C1  ZIN AC000       1.149  -2.799   2.873  0.00  0.00     0.267 C 
ATOM     22  H3  ZIN AC000       0.132  -4.551   2.628  0.00  0.00     0.277 HD
ATOM     23  H4  ZIN AC000      -0.464  -3.305   1.730  0.00  0.00     0.277 HD
ENDBRANCH  18  20
ENDBRANCH  12  18
ENDBRANCH   7   8
ENDBRANCH   1   7
BRANCH   6  24
ATOM     24  O57 ZIN AC000      -2.548  -2.615  -0.144  0.00  0.00    -0.390 OA
ATOM     25  H81 ZIN AC000      -2.554  -1.654  -0.044  0.00  0.00     0.210 HD
ENDBRANCH   6  24
BRANCH   2  26
ATOM     26  N25 ZIN AC000      -4.920  -6.741  -1.155  0.00  0.00    -0.072 N 
ATOM     27  H26 ZIN AC000      -4.530  -7.120  -0.304  0.00  0.00     0.274 HD
ATOM     28  H27 ZIN AC000      -5.832  -7.142  -1.314  0.00  0.00     0.274 HD
ATOM     29  H28 ZIN AC000      -4.314  -6.963  -1.930  0.00  0.00     0.274 HD
ENDBRANCH   2  26
BRANCH   5  30
ATOM     30  O38 ZIN AC000      -3.297  -2.892  -2.854  0.00  0.00    -0.349 OA
BRANCH  30  31
ATOM     31  C39 ZIN AC000      -2.534  -1.768  -3.296  0.00  0.00     0.291 C 
ATOM     32  C52 ZIN AC000      -1.475  -2.234  -4.299  0.00  0.00     0.207 C 
ATOM     33  C46 ZIN AC000      -0.701  -1.016  -4.814  0.00  0.00     0.254 C 
ATOM     34  C43 ZIN AC000      -1.688  -0.021  -5.431  0.00  0.00     0.106 C 
ATOM     35  C42 ZIN AC000      -2.739   0.359  -4.385  0.00  0.00     0.210 C 
ATOM     36  C44 ZIN AC000      -0.936   1.234  -5.880  0.00  0.00     0.050 C 
ATOM     37  O41 ZIN AC000      -3.400  -0.822  -3.925  0.00  0.00    -0.356 OA
BRANCH  32  38
ATOM     38  O54 ZIN AC000      -2.111  -2.894  -5.395  0.00  0.00    -0.388 OA
ATOM     39  H80 ZIN AC000      -2.620  -3.676  -5.141  0.00  0.00     0.210 HD
ENDBRANCH  32  38
BRANCH  33  40
ATOM     40  N48 ZIN AC000       0.268  -1.443  -5.833  0.00  0.00    -0.069 N 
ATOM     41  H49 ZIN AC000      -0.206  -1.979  -6.545  0.00  0.00     0.277 HD
ATOM     42  H50 ZIN AC000       0.695  -0.630  -6.252  0.00  0.00     0.277 HD
ATOM     43  C51 ZIN AC000       1.305  -2.272  -5.205  0.00  0.00     0.267 C 
ENDBRANCH  33  40
BRANCH  34  44
ATOM     44  O45 ZIN AC000      -2.331  -0.621  -6.558  0.00  0.00    -0.386 OA
ATOM     45  H76 ZIN AC000      -2.974  -0.046  -6.995  0.00  0.00     0.210 HD
ENDBRANCH  34  44
ENDBRANCH  30  31
ENDBRANCH   5  30
BRANCH   4  46
ATOM     46  N32 ZIN AC000      -6.048  -2.606  -3.523  0.00  0.00    -0.072 N 
ATOM     47  H33 ZIN AC000      -6.942  -2.997  -3.781  0.00  0.00     0.274 HD
ATOM     48  H34 ZIN AC000      -6.132  -1.604  -3.437  0.00  0.00     0.274 HD
ATOM     49  H35 ZIN AC000      -5.367  -2.827  -4.234  0.00  0.00     0.274 HD
ENDBRANCH   4  46
TORSDOF 13
