REMARK  6 active torsions:
REMARK  status: ('A' for Active; 'I' for Inactive)
REMARK    1  A    between atoms: C5_5  and  C6_6 
REMARK    2  A    between atoms: C6_6  and  O7_7 
REMARK    3  A    between atoms: O7_7  and  C8_8 
REMARK    4  A    between atoms: C8_8  and  C10_9 
REMARK    5  A    between atoms: C8_8  and  C17_16 
REMARK    6  A    between atoms: C10_9  and  N11_10 
ROOT
ATOM      1  C8  <0> d          -0.084   7.897   1.504  0.00  0.00     0.174 C 
ENDROOT
BRANCH   1   2
ATOM      2  O7  <0> d          -0.066   6.473   1.383  0.00  0.00    -0.375 OA
BRANCH   2   3
ATOM      3  C6  <0> d          -0.079   6.003   0.034  0.00  0.00     0.207 C 
BRANCH   3   4
ATOM      4  C5  <0> d          -0.059   4.497   0.026  0.00  0.00    -0.035 A 
ATOM      5  C4  <0> d          -1.247   3.789   0.040  0.00  0.00     0.011 A 
ATOM      6  C3  <0> d          -1.229   2.407   0.033  0.00  0.00     0.024 A 
ATOM      7  C2  <0> d          -0.021   1.732   0.012  0.00  0.00     0.034 A 
ATOM      8 Cl1  <0> d           0.002  -0.004   0.002  0.00  0.00    -0.084 Cl
ATOM      9  C26 <0> d           1.167   2.440   0.004  0.00  0.00     0.024 A 
ATOM     10  C25 <0> d           1.147   3.822   0.006  0.00  0.00     0.011 A 
ENDBRANCH   3   4
ENDBRANCH   2   3
ENDBRANCH   1   2
BRANCH   1  11
ATOM     11  C10 <0> d           1.352   8.425   1.526  0.00  0.00     0.166 C 
BRANCH  11  12
ATOM     12  N11 <0> d           1.992   8.152   0.236  0.00  0.00    -0.349 N 
ATOM     13  C16 <0> d           1.995   8.963  -0.844  0.00  0.00     0.182 A 
ATOM     14  N14 <0> d           2.667   8.383  -1.800  0.00  0.00    -0.361 N 
ATOM     15  C13 <0> d           3.105   7.190  -1.372  0.00  0.00     0.106 A 
ATOM     16  H15 <0> d           2.822   8.754  -2.683  0.00  0.00     0.166 HD
ATOM     17  C12 <0> d           2.694   7.026  -0.101  0.00  0.00     0.108 A 
ENDBRANCH  11  12
ENDBRANCH   1  11
BRANCH   1  18
ATOM     18  C17 <0> d          -0.781   8.284   2.782  0.00  0.00    -0.006 A 
ATOM     19  C23 <0> d          -1.380   9.527   2.894  0.00  0.00     0.044 A 
ATOM     20  C22 <0> d          -2.025   9.880   4.066  0.00  0.00     0.048 A 
ATOM     21 Cl24 <0> d          -1.334  10.636   1.560  0.00  0.00    -0.084 Cl
ATOM     22  C20 <0> d          -2.061   8.995   5.129  0.00  0.00     0.035 A 
ATOM     23  C19 <0> d          -1.457   7.756   5.018  0.00  0.00     0.024 A 
ATOM     24 Cl21 <0> d          -2.864   9.441   6.602  0.00  0.00    -0.084 Cl
ATOM     25  C18 <0> d          -0.817   7.401   3.845  0.00  0.00     0.013 A 
ENDBRANCH   1  18
TORSDOF 6
