REMARK  4 active torsions:
REMARK  status: ('A' for Active; 'I' for Inactive)
REMARK    1  A    between atoms: N1_1  and  C5_5 
REMARK    2  A    between atoms: N11_10  and  C12_11 
REMARK    3  A    between atoms: C19_18  and  C20_19 
REMARK    4  A    between atoms: N24_23  and  C25_24 
ROOT
ATOM      1  C12 ZIN AC000       1.368   1.018   5.318  0.00  0.00     0.074 A 
ATOM      2  C13 ZIN AC000       0.838   1.203   6.597  0.00  0.00     0.140 A 
ATOM      3  F14 ZIN AC000       0.608   2.453   7.055  0.00  0.00    -0.204 F 
ATOM      4  C15 ZIN AC000       0.550   0.126   7.387  0.00  0.00     0.062 A 
ATOM      5  C16 ZIN AC000       0.788  -1.167   6.913  0.00  0.00     0.047 A 
ATOM      6  C17 ZIN AC000       0.488  -2.346   7.742  0.00  0.00     0.203 A 
ATOM      7  O18 ZIN AC000       0.024  -2.234   8.863  0.00  0.00    -0.286 OA
ATOM      8  C19 ZIN AC000       0.771  -3.669   7.158  0.00  0.00     0.107 A 
ATOM      9  C23 ZIN AC000       1.296  -3.737   5.882  0.00  0.00     0.114 A 
ATOM     10  N24 ZIN AC000       1.556  -2.641   5.159  0.00  0.00    -0.349 N 
ATOM     11  C28 ZIN AC000       1.321  -1.365   5.627  0.00  0.00     0.073 A 
ATOM     12  C29 ZIN AC000       1.604  -0.259   4.832  0.00  0.00     0.086 A 
ATOM     13 Cl30 ZIN AC000       2.257  -0.477   3.238  0.00  0.00    -0.080 Cl
ENDROOT
BRANCH   1  14
ATOM     14  N11 ZIN AC000       1.656   2.124   4.522  0.00  0.00    -0.277 NA
ATOM     15  C10 ZIN AC000       0.456   2.860   4.206  0.00  0.00     0.096 C 
ATOM     16  C9  ZIN AC000       0.461   3.374   2.754  0.00  0.00     0.015 C 
ATOM     17  C8  ZIN AC000       1.841   3.916   2.329  0.00  0.00     0.003 C 
ATOM     18  C7  ZIN AC000       2.506   4.738   3.400  0.00  0.00     0.034 C 
ATOM     19  C5  ZIN AC000       3.405   3.815   4.252  0.00  0.00     0.197 C 
ATOM     20  C31 ZIN AC000       2.621   3.022   5.192  0.00  0.00     0.128 C 
BRANCH  19  21
ATOM     21  N1  ZIN AC000       4.363   4.638   5.002  0.00  0.00    -0.074 N 
ATOM     22  H2  ZIN AC000       4.965   4.040   5.548  0.00  0.00     0.274 HD
ATOM     23  H3  ZIN AC000       3.862   5.263   5.616  0.00  0.00     0.274 HD
ATOM     24  H4  ZIN AC000       4.921   5.177   4.357  0.00  0.00     0.274 HD
ENDBRANCH  19  21
ENDBRANCH   1  14
BRANCH  10  25
ATOM     25  C25 ZIN AC000       2.113  -2.804   3.814  0.00  0.00     0.090 A 
ATOM     26  C27 ZIN AC000       1.126  -2.950   2.654  0.00  0.00     0.028 A 
ATOM     27  C26 ZIN AC000       1.928  -4.161   3.132  0.00  0.00     0.028 A 
ENDBRANCH  10  25
BRANCH   8  28
ATOM     28  C20 ZIN AC000       0.499  -4.893   7.918  0.00  0.00     0.214 C 
ATOM     29  O21 ZIN AC000       0.739  -5.987   7.423  0.00  0.00    -0.644 OA
ATOM     30  O22 ZIN AC000       0.034  -4.821   9.048  0.00  0.00    -0.644 OA
ENDBRANCH   8  28
TORSDOF 4
