REMARK  1 active torsions:
REMARK  status: ('A' for Active; 'I' for Inactive)
REMARK    1  A    between atoms: C9_9  and  C10_10 
ROOT
ATOM      1  C1  ZIN AC000       0.161   1.669   0.315  0.00  0.00     0.089 C 
ATOM      2  C2  ZIN AC000       0.107   0.169   0.186  0.00  0.00     0.084 A 
ATOM      3  N3  ZIN AC000       0.074  -0.502  -0.936  0.00  0.00    -0.354 N 
ATOM      4  H4  ZIN AC000       0.091  -0.111  -1.823  0.00  0.00     0.166 HD
ATOM      5  C5  ZIN AC000       0.013  -1.817  -0.667  0.00  0.00     0.116 A 
ATOM      6  C6  ZIN AC000       0.006  -1.966   0.667  0.00  0.00     0.053 A 
ATOM      7  C7  ZIN AC000      -0.106  -3.252   1.445  0.00  0.00     0.208 C 
ATOM      8  N8  ZIN AC000      -1.317  -3.171   2.269  0.00  0.00    -0.282 NA
ATOM      9  C9  ZIN AC000      -1.467  -2.264   3.170  0.00  0.00     0.077 C 
ATOM     10  C17 ZIN AC000      -0.541  -1.184   3.526  0.00  0.00     0.022 A 
ATOM     11  C18 ZIN AC000      -0.356  -0.897   4.888  0.00  0.00     0.040 A 
ATOM     12  C19 ZIN AC000       0.478   0.126   5.280  0.00  0.00     0.035 A 
ATOM     13 Cl20 ZIN AC000       0.698   0.462   6.969  0.00  0.00    -0.084 Cl
ATOM     14  C21 ZIN AC000       1.142   0.887   4.332  0.00  0.00     0.026 A 
ATOM     15  C22 ZIN AC000       0.980   0.611   2.991  0.00  0.00     0.032 A 
ATOM     16  C23 ZIN AC000       0.154  -0.430   2.579  0.00  0.00     0.053 A 
ATOM     17  N24 ZIN AC000       0.090  -0.717   1.214  0.00  0.00    -0.301 N 
ENDROOT
BRANCH   9  18
ATOM     18  C10 ZIN AC000      -2.728  -2.319   3.943  0.00  0.00     0.032 A 
ATOM     19  C15 ZIN AC000      -3.661  -1.284   3.839  0.00  0.00     0.129 A 
ATOM     20  C14 ZIN AC000      -4.839  -1.346   4.560  0.00  0.00     0.043 A 
ATOM     21  F16 ZIN AC000      -3.418  -0.232   3.028  0.00  0.00    -0.205 F 
ATOM     22  C13 ZIN AC000      -5.089  -2.423   5.390  0.00  0.00     0.003 A 
ATOM     23  C12 ZIN AC000      -4.166  -3.448   5.502  0.00  0.00     0.001 A 
ATOM     24  C11 ZIN AC000      -2.989  -3.402   4.783  0.00  0.00     0.017 A 
ENDBRANCH   9  18
TORSDOF 1
