REMARK  9 active torsions:
REMARK  status: ('A' for Active; 'I' for Inactive)
REMARK    1  A    between atoms: O2_2  and  C3_3 
REMARK    2  A    between atoms: C3_3  and  N4_4 
REMARK       I    between atoms: N4_4  and  C5_5 
REMARK    3  A    between atoms: C5_5  and  C7_7 
REMARK    4  A    between atoms: C10_10  and  C11_11 
REMARK    5  A    between atoms: C10_10  and  C14_14 
REMARK       I    between atoms: C11_11  and  N12_12 
REMARK    6  A    between atoms: C21_21  and  C22_22 
REMARK    7  A    between atoms: C25_25  and  C26_26 
REMARK    8  A    between atoms: C26_26  and  S27_27 
REMARK    9  A    between atoms: S27_27  and  C28_28 
ROOT
ATOM      1  C3  ZIN AC000       0.468  -0.403  -1.148  0.00  0.00     0.250 C 
ATOM      2  C18 ZIN AC000       1.917  -0.709  -0.809  0.00  0.00     0.285 C 
ATOM      3  O19 ZIN AC000       2.850  -0.048  -0.405  0.00  0.00    -0.267 OA
ATOM      4  N20 ZIN AC000       1.753  -2.003  -1.133  0.00  0.00    -0.288 N 
ATOM      5  C21 ZIN AC000       2.550  -3.112  -1.466  0.00  0.00     0.119 C 
ATOM      6  C25 ZIN AC000       2.076  -4.047  -2.278  0.00  0.00    -0.027 C 
ATOM      7  C34 ZIN AC000       0.721  -4.136  -2.898  0.00  0.00     0.113 C 
ATOM      8  S35 ZIN AC000      -0.131  -2.530  -2.924  0.00  0.00    -0.133 SA
ATOM      9  C36 ZIN AC000       0.264  -1.911  -1.254  0.00  0.00     0.221 C 
ENDROOT
BRANCH   1  10
ATOM     10  O2  ZIN AC000      -0.258   0.200  -0.074  0.00  0.00    -0.355 OA
ATOM     11  C1  ZIN AC000      -0.162   1.625  -0.035  0.00  0.00     0.205 C 
ENDBRANCH   1  10
BRANCH   1  12
ATOM     12  N4  ZIN AC000       0.296   0.305  -2.419  0.00  0.00    -0.317 N 
ATOM     13  C5  ZIN AC000       1.063  -0.018  -3.479  0.00  0.00     0.244 C 
ATOM     14  O6  ZIN AC000       1.895  -0.895  -3.381  0.00  0.00    -0.271 OA
ATOM     15  H41 ZIN AC000      -0.370   1.006  -2.498  0.00  0.00     0.166 HD
BRANCH  13  16
ATOM     16  C7  ZIN AC000       0.886   0.710  -4.787  0.00  0.00     0.211 A 
ATOM     17  S17 ZIN AC000       2.373   0.695  -5.826  0.00  0.00    -0.096 SA
ATOM     18  C9  ZIN AC000       2.465   2.399  -5.631  0.00  0.00     0.062 A 
ATOM     19  S8  ZIN AC000       1.067   2.509  -4.640  0.00  0.00    -0.096 SA
ATOM     20  C10 ZIN AC000       3.366   3.362  -6.112  0.00  0.00     0.131 C 
BRANCH  20  21
ATOM     21  C11 ZIN AC000       4.489   2.956  -6.957  0.00  0.00     0.258 C 
ATOM     22  N12 ZIN AC000       5.289   3.889  -7.510  0.00  0.00    -0.366 N 
ATOM     23  H43 ZIN AC000       5.166   4.826  -7.288  0.00  0.00     0.159 HD
ATOM     24  H44 ZIN AC000       5.987   3.625  -8.129  0.00  0.00     0.159 HD
ATOM     25  O13 ZIN AC000       4.700   1.775  -7.162  0.00  0.00    -0.268 OA
ENDBRANCH  20  21
BRANCH  20  26
ATOM     26  C14 ZIN AC000       3.188   4.722  -5.781  0.00  0.00     0.216 C 
ATOM     27  O15 ZIN AC000       2.313   5.050  -4.987  0.00  0.00    -0.644 OA
ATOM     28  O16 ZIN AC000       3.908   5.575  -6.286  0.00  0.00    -0.644 OA
ENDBRANCH  20  26
ENDBRANCH  13  16
ENDBRANCH   1  12
BRANCH   5  29
ATOM     29  C22 ZIN AC000       3.909  -3.234  -0.914  0.00  0.00     0.227 C 
ATOM     30  O23 ZIN AC000       4.869  -2.832  -1.557  0.00  0.00    -0.643 OA
ATOM     31  O24 ZIN AC000       4.078  -3.738   0.188  0.00  0.00    -0.643 OA
ENDBRANCH   5  29
BRANCH   6  32
ATOM     32  C26 ZIN AC000       3.029  -5.165  -2.618  0.00  0.00     0.120 C 
BRANCH  32  33
ATOM     33  S27 ZIN AC000       2.605  -6.634  -1.650  0.00  0.00    -0.084 SA
BRANCH  33  34
ATOM     34  C28 ZIN AC000       3.840  -7.749  -2.230  0.00  0.00     0.209 A 
ATOM     35  N32 ZIN AC000       4.010  -9.035  -1.840  0.00  0.00    -0.230 N 
ATOM     36  N31 ZIN AC000       5.111  -9.502  -2.579  0.00  0.00    -0.044 NA
ATOM     37  C33 ZIN AC000       3.213  -9.781  -0.863  0.00  0.00     0.184 C 
ATOM     38  N30 ZIN AC000       5.510  -8.522  -3.314  0.00  0.00    -0.022 NA
ATOM     39  N29 ZIN AC000       4.774  -7.488  -3.119  0.00  0.00    -0.102 NA
ENDBRANCH  33  34
ENDBRANCH  32  33
ENDBRANCH   6  32
TORSDOF 9
