REMARK  2 active torsions:
REMARK  status: ('A' for Active; 'I' for Inactive)
REMARK    1  A    between atoms: C2_2  and  C3_3 
REMARK    2  A    between atoms: C2_2  and  C9_9 
ROOT
ATOM      1  O1  <0> d          -0.140   0.034  -0.267  0.00  0.00    -0.287 OA
ATOM      2  C2  <0> d          -0.014   1.211   0.009  0.00  0.00     0.192 C 
ENDROOT
BRANCH   2   3
ATOM      3  C3  <0> d           1.308   1.860  -0.108  0.00  0.00     0.015 A 
ATOM      4  C8  <0> d           2.379   1.171  -0.682  0.00  0.00     0.015 A 
ATOM      5  C7  <0> d           3.609   1.786  -0.794  0.00  0.00     0.001 A 
ATOM      6  C6  <0> d           3.787   3.076  -0.327  0.00  0.00     0.000 A 
ATOM      7  C5  <0> d           2.731   3.762   0.249  0.00  0.00     0.001 A 
ATOM      8  C4  <0> d           1.494   3.163   0.361  0.00  0.00     0.015 A 
ENDBRANCH   2   3
BRANCH   2   9
ATOM      9  C9  <0> d          -1.185   1.995   0.455  0.00  0.00     0.015 A 
ATOM     10  C14 <0> d          -2.189   1.387   1.213  0.00  0.00     0.015 A 
ATOM     11  C13 <0> d          -3.275   2.127   1.631  0.00  0.00     0.001 A 
ATOM     12  C12 <0> d          -3.379   3.464   1.291  0.00  0.00     0.000 A 
ATOM     13  C11 <0> d          -2.391   4.071   0.535  0.00  0.00     0.001 A 
ATOM     14  C10 <0> d          -1.296   3.345   0.115  0.00  0.00     0.015 A 
ENDBRANCH   2   9
TORSDOF 2
