REMARK  10 active torsions:
REMARK  status: ('A' for Active; 'I' for Inactive)
REMARK    1  A    between atoms: C2_2  and  C4_3 
REMARK    2  A    between atoms: C2_2  and  N13_12 
REMARK    3  A    between atoms: C4_3  and  C5_4 
REMARK    4  A    between atoms: C5_4  and  C6_5 
REMARK    5  A    between atoms: C9_8  and  O10_9 
REMARK    6  A    between atoms: N13_12  and  C16_15 
REMARK    7  A    between atoms: C16_15  and  C17_16 
REMARK    8  A    between atoms: C17_16  and  C18_17 
REMARK    9  A    between atoms: C21_20  and  O22_21 
REMARK   10  A    between atoms: C23_22  and  O24_23 
ROOT
ATOM      1  N13 <0> d          -1.376  -0.512   0.012  0.00  0.00    -0.071 N 
ATOM      2  H14 <0> d          -1.363  -1.518   0.090  0.00  0.00     0.277 HD
ATOM      3  H15 <0> d          -1.873  -0.121   0.799  0.00  0.00     0.277 HD
ENDROOT
BRANCH   1   4
ATOM      4  C2  <0> d           0.002  -0.004   0.002  0.00  0.00     0.182 C 
ATOM      5  C1  <0> d          -0.019   1.526   0.010  0.00  0.00     0.040 C 
BRANCH   4   6
ATOM      6  C4  <0> d           0.742  -0.511   1.242  0.00  0.00     0.037 C 
BRANCH   6   7
ATOM      7  C5  <0> d           0.872  -2.034   1.171  0.00  0.00     0.040 C 
BRANCH   7   8
ATOM      8  C6  <0> d           1.601  -2.533   2.392  0.00  0.00    -0.058 A 
ATOM      9  C12 <0> d           0.890  -2.877   3.527  0.00  0.00     0.010 A 
ATOM     10  C11 <0> d           1.556  -3.340   4.646  0.00  0.00     0.037 A 
ATOM     11  C9  <0> d           2.939  -3.449   4.633  0.00  0.00     0.065 A 
ATOM     12  C8  <0> d           3.650  -3.098   3.495  0.00  0.00     0.037 A 
ATOM     13  C7  <0> d           2.979  -2.640   2.377  0.00  0.00     0.010 A 
BRANCH  11  14
ATOM     14  O10 <0> d           3.596  -3.899   5.734  0.00  0.00    -0.361 OA
ATOM     15  H35 <0> d           3.854  -3.200   6.351  0.00  0.00     0.217 HD
ENDBRANCH  11  14
ENDBRANCH   7   8
ENDBRANCH   6   7
ENDBRANCH   4   6
ENDBRANCH   1   4
BRANCH   1  16
ATOM     16  C16 <0> d          -2.050  -0.126  -1.234  0.00  0.00     0.237 C 
BRANCH  16  17
ATOM     17  C17 <0> d          -3.485  -0.656  -1.224  0.00  0.00     0.066 C 
BRANCH  17  18
ATOM     18  C18 <0> d          -4.177  -0.259  -2.502  0.00  0.00    -0.054 A 
ATOM     19  C25 <0> d          -4.122  -1.094  -3.604  0.00  0.00     0.046 A 
ATOM     20  C23 <0> d          -4.762  -0.734  -4.778  0.00  0.00     0.099 A 
ATOM     21  C21 <0> d          -5.450   0.474  -4.850  0.00  0.00     0.098 A 
ATOM     22  C20 <0> d          -5.496   1.308  -3.745  0.00  0.00     0.040 A 
ATOM     23  C19 <0> d          -4.859   0.940  -2.574  0.00  0.00     0.010 A 
BRANCH  20  24
ATOM     24  O24 <0> d          -4.713  -1.556  -5.860  0.00  0.00    -0.358 OA
ATOM     25  H45 <0> d          -3.963  -1.391  -6.447  0.00  0.00     0.217 HD
ENDBRANCH  20  24
BRANCH  21  26
ATOM     26  O22 <0> d          -6.075   0.835  -6.003  0.00  0.00    -0.358 OA
ATOM     27  H44 <0> d          -5.518   1.342  -6.610  0.00  0.00     0.217 HD
ENDBRANCH  21  26
ENDBRANCH  17  18
ENDBRANCH  16  17
ENDBRANCH   1  16
TORSDOF 10
