REMARK  2 active torsions:
REMARK  status: ('A' for Active; 'I' for Inactive)
REMARK    1  A    between atoms: C3_3  and  N4_4 
REMARK    2  A    between atoms: N4_4  and  C5_5 
ROOT
ATOM      1  C1  <0> d           0.018  -1.178  -0.004  0.00  0.00     0.013 C 
ATOM      2  C2  <0> d           0.002  -0.004   0.002  0.00  0.00    -0.087 C 
ATOM      3  C3  <0> d          -0.018   1.468   0.010  0.00  0.00     0.362 C 
ENDROOT
BRANCH   3   4
ATOM      4  N4  <0> d           1.360   1.976  -0.000  0.00  0.00     0.103 N 
ATOM      5  H18 <0> d           1.889   1.604   0.774  0.00  0.00     0.317 HD
BRANCH   4   6
ATOM      6  C5  <0> d           1.379   3.445   0.007  0.00  0.00     0.255 C 
ATOM      7  C14 <0> d           1.345   3.963   1.429  0.00  0.00    -0.019 A 
ATOM      8  C9  <0> d           2.617   4.355   1.813  0.00  0.00    -0.050 A 
ATOM      9  C13 <0> d           0.292   4.082   2.317  0.00  0.00     0.010 A 
ATOM     10  C8  <0> d           3.588   4.127   0.674  0.00  0.00     0.041 C 
ATOM     11  C10 <0> d           2.827   4.864   3.083  0.00  0.00     0.007 A 
ATOM     12  C7  <0> d           2.707   3.966  -0.583  0.00  0.00     0.045 C 
ATOM     13  C11 <0> d           1.772   4.982   3.967  0.00  0.00     0.001 A 
ATOM     14  C12 <0> d           0.503   4.591   3.584  0.00  0.00     0.001 A 
ENDBRANCH   4   6
ENDBRANCH   3   4
TORSDOF 2
