REMARK  27 active torsions:
REMARK  status: ('A' for Active; 'I' for Inactive)
REMARK       I    between atoms: C2_2  and  N4_4 
REMARK    1  A    between atoms: N4_4  and  O5_5 
REMARK    2  A    between atoms: N4_4  and  C6_6 
REMARK    3  A    between atoms: C6_6  and  C7_7 
REMARK    4  A    between atoms: C7_7  and  C8_8 
REMARK    5  A    between atoms: C8_8  and  C9_9 
REMARK    6  A    between atoms: C9_9  and  C10_10 
REMARK    7  A    between atoms: C10_10  and  N11_11 
REMARK       I    between atoms: N11_11  and  C12_12 
REMARK    8  A    between atoms: C12_12  and  C14_14 
REMARK    9  A    between atoms: C14_14  and  C15_15 
REMARK   10  A    between atoms: C15_15  and  C16_16 
REMARK       I    between atoms: C16_16  and  N18_18 
REMARK   11  A    between atoms: N18_18  and  O19_19 
REMARK   12  A    between atoms: N18_18  and  C20_20 
REMARK   13  A    between atoms: C20_20  and  C21_21 
REMARK   14  A    between atoms: C21_21  and  C22_22 
REMARK   15  A    between atoms: C22_22  and  C23_23 
REMARK   16  A    between atoms: C23_23  and  C24_24 
REMARK   17  A    between atoms: C24_24  and  N25_25 
REMARK       I    between atoms: N25_25  and  C26_26 
REMARK   18  A    between atoms: C26_26  and  C28_28 
REMARK   19  A    between atoms: C28_28  and  C29_29 
REMARK   20  A    between atoms: C29_29  and  C30_30 
REMARK       I    between atoms: C30_30  and  N32_32 
REMARK   21  A    between atoms: N32_32  and  O33_33 
REMARK   22  A    between atoms: N32_32  and  C34_34 
REMARK   23  A    between atoms: C34_34  and  C35_35 
REMARK   24  A    between atoms: C35_35  and  C36_36 
REMARK   25  A    between atoms: C36_36  and  C37_37 
REMARK   26  A    between atoms: C37_37  and  C38_38 
REMARK   27  A    between atoms: C38_38  and  N39_39 
ROOT
ATOM      1  C21 ZIN AC000       0.228 -12.253   9.556  0.00  0.00     0.022 C 
ENDROOT
BRANCH   1   2
ATOM      2  C20 ZIN AC000       1.410 -12.414   8.598  0.00  0.00     0.159 C 
BRANCH   2   3
ATOM      3  N18 ZIN AC000       1.033 -11.923   7.270  0.00  0.00    -0.229 N 
ATOM      4  C16 ZIN AC000       0.949 -10.598   7.040  0.00  0.00     0.243 C 
ATOM      5  O17 ZIN AC000       1.186  -9.812   7.933  0.00  0.00    -0.271 OA
BRANCH   4   6
ATOM      6  C15 ZIN AC000       0.562 -10.093   5.674  0.00  0.00     0.114 C 
BRANCH   6   7
ATOM      7  C14 ZIN AC000       0.541  -8.563   5.682  0.00  0.00     0.112 C 
BRANCH   7   8
ATOM      8  C12 ZIN AC000       0.153  -8.059   4.316  0.00  0.00     0.217 C 
ATOM      9  N11 ZIN AC000       0.069  -6.734   4.086  0.00  0.00    -0.361 N 
ATOM     10  H57 ZIN AC000       0.258  -6.104   4.800  0.00  0.00     0.162 HD
ATOM     11  O13 ZIN AC000      -0.083  -8.845   3.424  0.00  0.00    -0.274 OA
BRANCH   9  12
ATOM     12  C10 ZIN AC000      -0.307  -6.243   2.758  0.00  0.00     0.122 C 
BRANCH  12  13
ATOM     13  C9  ZIN AC000      -0.328  -4.713   2.767  0.00  0.00     0.020 C 
BRANCH  13  14
ATOM     14  C8  ZIN AC000      -0.722  -4.201   1.380  0.00  0.00     0.003 C 
BRANCH  14  15
ATOM     15  C7  ZIN AC000      -0.742  -2.671   1.388  0.00  0.00     0.022 C 
BRANCH  15  16
ATOM     16  C6  ZIN AC000      -1.136  -2.159   0.001  0.00  0.00     0.159 C 
BRANCH  16  17
ATOM     17  N4  ZIN AC000      -1.156  -0.694   0.009  0.00  0.00    -0.229 N 
ATOM     18  C2  ZIN AC000       0.002  -0.004   0.002  0.00  0.00     0.239 C 
ATOM     19  C1  ZIN AC000      -0.018   1.503   0.010  0.00  0.00     0.119 C 
ATOM     20  O3  ZIN AC000       1.060  -0.596  -0.011  0.00  0.00    -0.272 OA
BRANCH  17  21
ATOM     21  O5  ZIN AC000      -2.392  -0.003   0.025  0.00  0.00    -0.285 OA
ATOM     22  H46 ZIN AC000      -3.166  -0.582   0.029  0.00  0.00     0.245 HD
ENDBRANCH  17  21
ENDBRANCH  16  17
ENDBRANCH  15  16
ENDBRANCH  14  15
ENDBRANCH  13  14
ENDBRANCH  12  13
ENDBRANCH   9  12
ENDBRANCH   7   8
ENDBRANCH   6   7
ENDBRANCH   4   6
BRANCH   3  23
ATOM     23  O19 ZIN AC000       0.757 -12.842   6.228  0.00  0.00    -0.285 OA
ATOM     24  H62 ZIN AC000       0.844 -13.769   6.488  0.00  0.00     0.245 HD
ENDBRANCH   3  23
ENDBRANCH   2   3
ENDBRANCH   1   2
BRANCH   1  25
ATOM     25  C22 ZIN AC000       0.621 -12.766  10.942  0.00  0.00     0.003 C 
BRANCH  25  26
ATOM     26  C23 ZIN AC000      -0.561 -12.605  11.900  0.00  0.00     0.020 C 
BRANCH  26  27
ATOM     27  C24 ZIN AC000      -0.168 -13.117  13.287  0.00  0.00     0.122 C 
BRANCH  27  28
ATOM     28  N25 ZIN AC000      -1.300 -12.963  14.204  0.00  0.00    -0.361 N 
ATOM     29  C26 ZIN AC000      -1.184 -13.350  15.489  0.00  0.00     0.217 C 
ATOM     30  O27 ZIN AC000      -0.141 -13.826  15.887  0.00  0.00    -0.274 OA
ATOM     31  H73 ZIN AC000      -2.134 -12.583  13.885  0.00  0.00     0.162 HD
BRANCH  29  32
ATOM     32  C28 ZIN AC000      -2.348 -13.192  16.432  0.00  0.00     0.112 C 
BRANCH  32  33
ATOM     33  C29 ZIN AC000      -1.955 -13.704  17.819  0.00  0.00     0.114 C 
BRANCH  33  34
ATOM     34  C30 ZIN AC000      -3.120 -13.546  18.762  0.00  0.00     0.243 C 
ATOM     35  O31 ZIN AC000      -4.162 -13.070  18.364  0.00  0.00    -0.271 OA
ATOM     36  N32 ZIN AC000      -3.003 -13.933  20.048  0.00  0.00    -0.229 N 
BRANCH  36  37
ATOM     37  O33 ZIN AC000      -1.786 -14.489  20.513  0.00  0.00    -0.285 OA
ATOM     38  H78 ZIN AC000      -1.798 -14.736  21.448  0.00  0.00     0.245 HD
ENDBRANCH  36  37
BRANCH  36  39
ATOM     39  C34 ZIN AC000      -4.135 -13.780  20.965  0.00  0.00     0.159 C 
BRANCH  39  40
ATOM     40  C35 ZIN AC000      -5.184 -14.853  20.665  0.00  0.00     0.022 C 
BRANCH  40  41
ATOM     41  C36 ZIN AC000      -6.366 -14.692  21.623  0.00  0.00     0.003 C 
BRANCH  41  42
ATOM     42  C37 ZIN AC000      -7.415 -15.765  21.323  0.00  0.00     0.027 C 
BRANCH  42  43
ATOM     43  C38 ZIN AC000      -8.597 -15.604  22.280  0.00  0.00     0.229 C 
BRANCH  43  44
ATOM     44  N39 ZIN AC000      -9.604 -16.635  21.993  0.00  0.00    -0.079 N 
ATOM     45  H40 ZIN AC000     -10.384 -16.529  22.624  0.00  0.00     0.274 HD
ATOM     46  H41 ZIN AC000      -9.925 -16.535  21.041  0.00  0.00     0.274 HD
ATOM     47  H42 ZIN AC000      -9.194 -17.549  22.115  0.00  0.00     0.274 HD
ENDBRANCH  43  44
ENDBRANCH  42  43
ENDBRANCH  41  42
ENDBRANCH  40  41
ENDBRANCH  39  40
ENDBRANCH  36  39
ENDBRANCH  33  34
ENDBRANCH  32  33
ENDBRANCH  29  32
ENDBRANCH  27  28
ENDBRANCH  26  27
ENDBRANCH  25  26
ENDBRANCH   1  25
TORSDOF 27
