REMARK  7 active torsions:
REMARK  status: ('A' for Active; 'I' for Inactive)
REMARK    1  A    between atoms: O2_2  and  C3_3 
REMARK    2  A    between atoms: C7_7  and  C8_8 
REMARK    3  A    between atoms: C8_8  and  S9_9 
REMARK    4  A    between atoms: S9_9  and  C11_11 
REMARK    5  A    between atoms: C16_16  and  O17_17 
REMARK    6  A    between atoms: O17_17  and  C18_18 
REMARK    7  A    between atoms: C24_24  and  O25_25 
ROOT
ATOM      1  C11 ZIN AC000       0.423  -6.443   3.458  0.00  0.00     0.198 A 
ATOM      2  N12 ZIN AC000      -0.014  -7.351   2.636  0.00  0.00    -0.221 NA
ATOM      3  C13 ZIN AC000       0.444  -8.572   3.018  0.00  0.00     0.086 A 
ATOM      4  C14 ZIN AC000       0.283  -9.862   2.507  0.00  0.00     0.037 A 
ATOM      5  C15 ZIN AC000       0.883 -10.921   3.127  0.00  0.00     0.039 A 
ATOM      6  C16 ZIN AC000       1.656 -10.728   4.268  0.00  0.00     0.077 A 
ATOM      7  C21 ZIN AC000       1.828  -9.459   4.790  0.00  0.00     0.069 A 
ATOM      8  C22 ZIN AC000       1.224  -8.374   4.170  0.00  0.00     0.066 A 
ATOM      9  N23 ZIN AC000       1.196  -7.017   4.421  0.00  0.00    -0.331 N 
ATOM     10  H38 ZIN AC000       1.644  -6.558   5.149  0.00  0.00     0.168 HD
ENDROOT
BRANCH   1  11
ATOM     11  S9  ZIN AC000       0.074  -4.720   3.339  0.00  0.00     0.092 S 
ATOM     12  O10 ZIN AC000      -1.144  -4.691   2.606  0.00  0.00    -0.249 OA
BRANCH  11  13
ATOM     13  C8  ZIN AC000       1.422  -4.101   2.295  0.00  0.00     0.179 C 
BRANCH  13  14
ATOM     14  C7  ZIN AC000       1.335  -2.600   2.200  0.00  0.00     0.082 A 
ATOM     15  N6  ZIN AC000       0.709  -2.046   1.179  0.00  0.00    -0.262 NA
ATOM     16  C5  ZIN AC000       0.606  -0.737   1.050  0.00  0.00     0.120 A 
ATOM     17  C4  ZIN AC000       1.155   0.113   1.990  0.00  0.00     0.059 A 
ATOM     18  C3  ZIN AC000       1.825  -0.427   3.082  0.00  0.00     0.104 A 
ATOM     19  C24 ZIN AC000       1.918  -1.817   3.181  0.00  0.00     0.127 A 
BRANCH  18  20
ATOM     20  O2  ZIN AC000       2.378   0.377   4.027  0.00  0.00    -0.353 OA
ATOM     21  C1  ZIN AC000       2.233   1.787   3.845  0.00  0.00     0.210 C 
ENDBRANCH  18  20
BRANCH  19  22
ATOM     22  O25 ZIN AC000       2.563  -2.393   4.231  0.00  0.00    -0.351 OA
ATOM     23  C26 ZIN AC000       3.979  -2.545   4.118  0.00  0.00     0.210 C 
ENDBRANCH  19  22
ENDBRANCH  13  14
ENDBRANCH  11  13
ENDBRANCH   1  11
BRANCH   6  24
ATOM     24  O17 ZIN AC000       2.246 -11.793   4.873  0.00  0.00    -0.290 OA
BRANCH  24  25
ATOM     25  C18 ZIN AC000       2.030 -13.077   4.283  0.00  0.00     0.505 C 
ATOM     26  F19 ZIN AC000       0.660 -13.361   4.274  0.00  0.00    -0.184 F 
ATOM     27  F20 ZIN AC000       2.513 -13.074   2.970  0.00  0.00    -0.184 F 
ENDBRANCH  24  25
ENDBRANCH   6  24
TORSDOF 7
