REMARK  4 active torsions:
REMARK  status: ('A' for Active; 'I' for Inactive)
REMARK    1  A    between atoms: C2_2  and  C3_3 
REMARK    2  A    between atoms: C3_3  and  C4_4 
REMARK    3  A    between atoms: C7_7  and  O8_8 
REMARK    4  A    between atoms: C9_9  and  O10_10 
ROOT
ATOM      1  C4  <0> d          -1.318  -1.726  -1.159  0.00  0.00    -0.052 A 
ATOM      2  C5  <0> d          -1.833  -1.313  -2.373  0.00  0.00     0.010 A 
ATOM      3  C6  <0> d          -1.860  -2.182  -3.448  0.00  0.00     0.040 A 
ATOM      4  C7  <0> d          -1.369  -3.470  -3.310  0.00  0.00     0.099 A 
ATOM      5  C9  <0> d          -0.849  -3.886  -2.087  0.00  0.00     0.101 A 
ATOM      6  C12 <0> d          -0.821  -3.009  -1.016  0.00  0.00     0.047 A 
ENDROOT
BRANCH   1   7
ATOM      7  C3  <0> d          -1.293  -0.775   0.010  0.00  0.00     0.065 C 
BRANCH   7   8
ATOM      8  C2  <0> d           0.002  -0.004   0.002  0.00  0.00    -0.032 C 
ATOM      9  C1  <0> d          -0.016   1.306   0.009  0.00  0.00     0.007 C 
ENDBRANCH   7   8
ENDBRANCH   1   7
BRANCH   5  10
ATOM     10  O10 <0> d          -0.365  -5.149  -1.947  0.00  0.00    -0.353 OA
ATOM     11  C11 <0> d           0.152  -5.507  -0.664  0.00  0.00     0.210 C 
ENDBRANCH   5  10
BRANCH   4  12
ATOM     12  O8  <0> d          -1.393  -4.325  -4.367  0.00  0.00    -0.358 OA
ATOM     13  H20 <0> d          -0.599  -4.293  -4.917  0.00  0.00     0.217 HD
ENDBRANCH   4  12
TORSDOF 4
