REMARK  9 active torsions:
REMARK  status: ('A' for Active; 'I' for Inactive)
REMARK    1  A    between atoms: C2_2  and  C3_3 
REMARK    2  A    between atoms: C4_4  and  C5_5 
REMARK    3  A    between atoms: C11_11  and  N13_12 
REMARK       I    between atoms: N13_12  and  C14_13 
REMARK    4  A    between atoms: C14_13  and  C16_15 
REMARK    5  A    between atoms: C16_15  and  C23_22 
REMARK    6  A    between atoms: N17_16  and  O18_17 
REMARK    7  A    between atoms: O18_17  and  C19_18 
REMARK    8  A    between atoms: C19_18  and  C20_19 
REMARK    9  A    between atoms: C26_25  and  N27_26 
ROOT
ATOM      1  N13 <0> d           4.598  -3.493  -1.932  0.00  0.00    -0.339 N 
ATOM      2  C14 <0> d           5.286  -4.422  -2.626  0.00  0.00     0.275 C 
ATOM      3  O15 <0> d           5.700  -5.416  -2.063  0.00  0.00    -0.266 OA
ATOM      4  H36 <0> d           4.330  -2.666  -2.363  0.00  0.00     0.163 HD
ENDROOT
BRANCH   2   5
ATOM      5  C16 <0> d           5.538  -4.230  -4.073  0.00  0.00     0.180 C 
ATOM      6  N17 <0> d           6.099  -5.178  -4.768  0.00  0.00    -0.125 NA
BRANCH   6   7
ATOM      7  O18 <0> d           6.368  -6.432  -4.168  0.00  0.00    -0.245 OA
BRANCH   7   8
ATOM      8  C19 <0> d           7.085  -7.338  -5.008  0.00  0.00     0.316 C 
BRANCH   8   9
ATOM      9  C20 <0> d           7.208  -8.672  -4.320  0.00  0.00     0.200 C 
ATOM     10  O21 <0> d           6.648  -8.862  -3.253  0.00  0.00    -0.646 OA
ATOM     11  O22 <0> d           7.866  -9.563  -4.830  0.00  0.00    -0.646 OA
ENDBRANCH   8   9
ENDBRANCH   7   8
ENDBRANCH   6   7
BRANCH   5  12
ATOM     12  C23 <0> d           5.152  -2.962  -4.729  0.00  0.00     0.102 A 
ATOM     13  N28 <0> d           4.677  -1.919  -4.046  0.00  0.00    -0.222 NA
ATOM     14  C26 <0> d           4.377  -0.859  -4.728  0.00  0.00     0.164 A 
ATOM     15  S25 <0> d           4.696  -1.148  -6.436  0.00  0.00    -0.062 SA
ATOM     16  C24 <0> d           5.250  -2.778  -6.060  0.00  0.00     0.087 A 
BRANCH  14  17
ATOM     17  N27 <0> d           3.877   0.318  -4.197  0.00  0.00    -0.378 N 
ATOM     18  H40 <0> d           3.674   1.066  -4.781  0.00  0.00     0.158 HD
ATOM     19  H41 <0> d           3.729   0.395  -3.242  0.00  0.00     0.158 HD
ENDBRANCH  14  17
ENDBRANCH   5  12
ENDBRANCH   2   5
BRANCH   1  20
ATOM     20  C11 <0> d           4.254  -3.733  -0.528  0.00  0.00     0.211 C 
ATOM     21  C9  <0> d           2.838  -4.210  -0.305  0.00  0.00     0.251 C 
ATOM     22  N8  <0> d           2.352  -3.024   0.042  0.00  0.00    -0.293 N 
ATOM     23  O10 <0> d           2.322  -5.303  -0.407  0.00  0.00    -0.271 OA
ATOM     24  C4  <0> d           1.160  -2.300   0.150  0.00  0.00     0.122 C 
ATOM     25  C29 <0> d           3.739  -2.510   0.210  0.00  0.00     0.187 C 
ATOM     26  C3  <0> d           1.182  -0.952   0.078  0.00  0.00    -0.016 C 
ATOM     27  C32 <0> d           2.379  -0.066  -0.043  0.00  0.00     0.117 C 
ATOM     28  S31 <0> d           3.840  -0.939  -0.711  0.00  0.00    -0.136 SA
BRANCH  24  29
ATOM     29  C5  <0> d          -0.110  -3.002   0.342  0.00  0.00     0.227 C 
ATOM     30  O6  <0> d          -0.725  -3.431  -0.627  0.00  0.00    -0.643 OA
ATOM     31  O7  <0> d          -0.558  -3.162   1.470  0.00  0.00    -0.643 OA
ENDBRANCH  24  29
BRANCH  26  32
ATOM     32  C2  <0> d          -0.116  -0.282   0.116  0.00  0.00     0.000 C 
ATOM     33  C1  <0> d          -0.178   1.052   0.154  0.00  0.00     0.012 C 
ENDBRANCH  26  32
ENDBRANCH   1  20
TORSDOF 9
