REMARK  18 active torsions:
REMARK  status: ('A' for Active; 'I' for Inactive)
REMARK    1  A    between atoms: C2_2  and  C3_3 
REMARK    2  A    between atoms: C3_3  and  C4_4 
REMARK    3  A    between atoms: C4_4  and  C5_5 
REMARK    4  A    between atoms: C5_5  and  C6_6 
REMARK    5  A    between atoms: C6_6  and  O7_7 
REMARK    6  A    between atoms: O7_7  and  C8_8 
REMARK       I    between atoms: C8_8  and  N10_10 
REMARK    7  A    between atoms: C11_11  and  N12_12 
REMARK    8  A    between atoms: C11_11  and  C13_13 
REMARK    9  A    between atoms: C16_16  and  N17_17 
REMARK   10  A    between atoms: N17_17  and  C18_18 
REMARK   11  A    between atoms: C18_18  and  C19_19 
REMARK   12  A    between atoms: C23_23  and  C24_24 
REMARK       I    between atoms: C24_24  and  N26_26 
REMARK   13  A    between atoms: N26_26  and  C27_27 
REMARK   14  A    between atoms: N26_26  and  C34_34 
REMARK   15  A    between atoms: C27_27  and  C28_28 
REMARK   16  A    between atoms: C28_28  and  C29_29 
REMARK   17  A    between atoms: C29_29  and  O31_31 
REMARK   18  A    between atoms: O31_31  and  C32_32 
ROOT
ATOM      1  C19 ZIN AC000       8.029  -9.937 -10.865  0.00  0.00     0.124 A 
ATOM      2  N20 ZIN AC000       7.439 -10.090 -12.013  0.00  0.00    -0.231 NA
ATOM      3  C21 ZIN AC000       8.221 -10.842 -12.831  0.00  0.00     0.086 A 
ATOM      4  C22 ZIN AC000       8.080 -11.301 -14.139  0.00  0.00     0.051 A 
ATOM      5  C23 ZIN AC000       9.089 -12.073 -14.707  0.00  0.00     0.035 A 
ATOM      6  C40 ZIN AC000      10.238 -12.385 -13.969  0.00  0.00     0.019 A 
ATOM      7  C41 ZIN AC000      10.380 -11.938 -12.687  0.00  0.00     0.033 A 
ATOM      8  C42 ZIN AC000       9.382 -11.166 -12.103  0.00  0.00     0.064 A 
ATOM      9  N43 ZIN AC000       9.232 -10.574 -10.868  0.00  0.00    -0.336 N 
ATOM     10  C44 ZIN AC000      10.191 -10.622  -9.761  0.00  0.00     0.158 C 
ENDROOT
BRANCH   1  11
ATOM     11  C18 ZIN AC000       7.467  -9.161  -9.702  0.00  0.00     0.198 C 
BRANCH  11  12
ATOM     12  N17 ZIN AC000       7.891  -7.762  -9.797  0.00  0.00    -0.383 N 
ATOM     13  H64 ZIN AC000       8.450  -7.474 -10.535  0.00  0.00     0.160 HD
BRANCH  12  14
ATOM     14  C16 ZIN AC000       7.492  -6.848  -8.829  0.00  0.00     0.028 A 
ATOM     15  C15 ZIN AC000       7.897  -5.518  -8.921  0.00  0.00     0.030 A 
ATOM     16  C14 ZIN AC000       7.506  -4.614  -7.967  0.00  0.00     0.017 A 
ATOM     17  C13 ZIN AC000       6.700  -5.028  -6.902  0.00  0.00     0.010 A 
ATOM     18  C46 ZIN AC000       6.300  -6.365  -6.809  0.00  0.00     0.017 A 
ATOM     19  C45 ZIN AC000       6.690  -7.263  -7.769  0.00  0.00     0.030 A 
BRANCH  17  20
ATOM     20  C11 ZIN AC000       6.278  -4.059  -5.876  0.00  0.00     0.137 C 
ATOM     21  N10 ZIN AC000       6.657  -2.793  -5.964  0.00  0.00    -0.170 NA
ATOM     22  C8  ZIN AC000       6.358  -1.934  -4.981  0.00  0.00     0.388 C 
ATOM     23  O9  ZIN AC000       7.220  -1.582  -4.197  0.00  0.00    -0.236 OA
BRANCH  22  24
ATOM     24  O7  ZIN AC000       5.101  -1.458  -4.859  0.00  0.00    -0.302 OA
BRANCH  24  25
ATOM     25  C6  ZIN AC000       4.853  -0.546  -3.788  0.00  0.00     0.180 C 
BRANCH  25  26
ATOM     26  C5  ZIN AC000       3.384  -0.119  -3.811  0.00  0.00     0.027 C 
BRANCH  26  27
ATOM     27  C4  ZIN AC000       3.119   0.858  -2.664  0.00  0.00     0.002 C 
BRANCH  27  28
ATOM     28  C3  ZIN AC000       1.650   1.285  -2.687  0.00  0.00    -0.000 C 
BRANCH  28  29
ATOM     29  C2  ZIN AC000       1.385   2.262  -1.540  0.00  0.00    -0.005 C 
ATOM     30  C1  ZIN AC000      -0.084   2.689  -1.563  0.00  0.00     0.005 C 
ENDBRANCH  28  29
ENDBRANCH  27  28
ENDBRANCH  26  27
ENDBRANCH  25  26
ENDBRANCH  24  25
ENDBRANCH  22  24
BRANCH  20  31
ATOM     31  N12 ZIN AC000       5.495  -4.466  -4.832  0.00  0.00    -0.383 N 
ATOM     32  H60 ZIN AC000       5.156  -3.815  -4.197  0.00  0.00     0.157 HD
ATOM     33  H61 ZIN AC000       5.278  -5.405  -4.726  0.00  0.00     0.157 HD
ENDBRANCH  20  31
ENDBRANCH  17  20
ENDBRANCH  12  14
ENDBRANCH  11  12
ENDBRANCH   1  11
BRANCH   5  34
ATOM     34  C24 ZIN AC000       8.949 -12.564 -16.093  0.00  0.00     0.259 C 
ATOM     35  O25 ZIN AC000       7.849 -12.838 -16.532  0.00  0.00    -0.267 OA
ATOM     36  N26 ZIN AC000      10.040 -12.707 -16.870  0.00  0.00    -0.298 N 
BRANCH  36  37
ATOM     37  C27 ZIN AC000      11.377 -12.534 -16.297  0.00  0.00     0.144 C 
BRANCH  37  38
ATOM     38  C28 ZIN AC000      12.004 -13.905 -16.041  0.00  0.00     0.131 C 
BRANCH  38  39
ATOM     39  C29 ZIN AC000      13.379 -13.727 -15.451  0.00  0.00     0.260 C 
ATOM     40  O30 ZIN AC000      13.813 -12.616 -15.254  0.00  0.00    -0.265 OA
BRANCH  39  41
ATOM     41  O31 ZIN AC000      14.122 -14.801 -15.143  0.00  0.00    -0.322 OA
BRANCH  41  42
ATOM     42  C32 ZIN AC000      15.437 -14.554 -14.578  0.00  0.00     0.174 C 
ATOM     43  C33 ZIN AC000      16.129 -15.888 -14.294  0.00  0.00     0.034 C 
ENDBRANCH  41  42
ENDBRANCH  39  41
ENDBRANCH  38  39
ENDBRANCH  37  38
ENDBRANCH  36  37
BRANCH  36  44
ATOM     44  C34 ZIN AC000       9.897 -13.021 -18.220  0.00  0.00     0.132 A 
ATOM     45  N39 ZIN AC000      10.939 -13.467 -18.904  0.00  0.00    -0.243 NA
ATOM     46  C38 ZIN AC000      10.845 -13.781 -20.182  0.00  0.00     0.119 A 
ATOM     47  C37 ZIN AC000       9.649 -13.644 -20.859  0.00  0.00     0.019 A 
ATOM     48  C36 ZIN AC000       8.534 -13.174 -20.180  0.00  0.00     0.005 A 
ATOM     49  C35 ZIN AC000       8.662 -12.858 -18.838  0.00  0.00     0.051 A 
ENDBRANCH  36  44
ENDBRANCH   5  34
TORSDOF 18
