REMARK  2 active torsions:
REMARK  status: ('A' for Active; 'I' for Inactive)
REMARK    1  A    between atoms: N1_1  and  S2_2 
REMARK    2  A    between atoms: S2_2  and  C5_5 
ROOT
ATOM      1  C5  ZIN AC000      -0.846  -0.529  -1.450  0.00  0.00     0.102 A 
ATOM      2  C6  ZIN AC000      -0.162  -1.208  -2.444  0.00  0.00     0.054 A 
ATOM      3  C7  ZIN AC000      -0.829  -1.615  -3.577  0.00  0.00     0.110 A 
ATOM      4  C8  ZIN AC000      -2.185  -1.350  -3.736  0.00  0.00     0.058 A 
ATOM      5  C9  ZIN AC000      -2.868  -0.670  -2.735  0.00  0.00     0.056 A 
ATOM      6  C10 ZIN AC000      -2.198  -0.268  -1.595  0.00  0.00     0.059 A 
ATOM      7 Cl11 ZIN AC000      -3.052   0.582  -0.345  0.00  0.00    -0.083 Cl
ATOM      8  N12 ZIN AC000      -2.845  -1.760  -4.891  0.00  0.00    -0.349 N 
ATOM      9  C13 ZIN AC000      -2.388  -2.713  -5.739  0.00  0.00     0.221 C 
ATOM     10  N14 ZIN AC000      -1.174  -3.119  -5.831  0.00  0.00    -0.155 NA
ATOM     11  S15 ZIN AC000       0.012  -2.486  -4.861  0.00  0.00     0.286 S 
ATOM     12  O16 ZIN AC000       0.691  -1.507  -5.636  0.00  0.00    -0.198 OA
ATOM     13  O17 ZIN AC000       0.665  -3.587  -4.245  0.00  0.00    -0.198 OA
ATOM     14  H22 ZIN AC000      -3.691  -1.334  -5.103  0.00  0.00     0.166 HD
ENDROOT
BRANCH   1  15
ATOM     15  S2  ZIN AC000       0.002  -0.004   0.002  0.00  0.00     0.258 S 
ATOM     16  O3  ZIN AC000       1.360  -0.386  -0.166  0.00  0.00    -0.201 OA
ATOM     17  O4  ZIN AC000      -0.792  -0.422   1.104  0.00  0.00    -0.201 OA
BRANCH  15  18
ATOM     18  N1  ZIN AC000      -0.020   1.652   0.011  0.00  0.00    -0.324 N 
ATOM     19  H18 ZIN AC000       0.813   2.148   0.006  0.00  0.00     0.169 HD
ATOM     20  H19 ZIN AC000      -0.867   2.125   0.018  0.00  0.00     0.169 HD
ENDBRANCH  15  18
ENDBRANCH   1  15
TORSDOF 2
