REMARK  3 active torsions:
REMARK  status: ('A' for Active; 'I' for Inactive)
REMARK    1  A    between atoms: C2_2  and  O3_3 
REMARK    2  A    between atoms: C2_2  and  C18_16 
REMARK    3  A    between atoms: O3_3  and  C4_4 
ROOT
ATOM      1  O3  ZIN AC000       1.144   1.902   0.001  0.00  0.00    -0.312 OA
ENDROOT
BRANCH   1   2
ATOM      2  C2  ZIN AC000      -0.014   1.212   0.009  0.00  0.00     0.296 C 
ATOM      3  O1  ZIN AC000       0.002  -0.004   0.002  0.00  0.00    -0.259 OA
BRANCH   2   4
ATOM      4  C18 ZIN AC000      -1.295   1.928   0.019  0.00  0.00     0.067 A 
ATOM      5  C26 ZIN AC000      -2.642   1.328   0.022  0.00  0.00     0.008 A 
ATOM      6  C21 ZIN AC000      -3.543   2.406   0.035  0.00  0.00     0.043 A 
ATOM      7  C25 ZIN AC000      -3.119   0.020   0.032  0.00  0.00     0.015 A 
ATOM      8  N20 ZIN AC000      -2.798   3.567   0.030  0.00  0.00    -0.364 N 
ATOM      9  C22 ZIN AC000      -4.910   2.152   0.045  0.00  0.00     0.030 A 
ATOM     10  C19 ZIN AC000      -1.474   3.281   0.021  0.00  0.00     0.107 A 
ATOM     11  H40 ZIN AC000      -3.170   4.463   0.034  0.00  0.00     0.165 HD
ATOM     12  C23 ZIN AC000      -5.368   0.852   0.048  0.00  0.00     0.002 A 
ATOM     13  C24 ZIN AC000      -4.477  -0.211   0.041  0.00  0.00     0.001 A 
ENDBRANCH   2   4
ENDBRANCH   1   2
BRANCH   1  14
ATOM     14  C4  ZIN AC000       2.372   1.128  -0.015  0.00  0.00     0.136 C 
ATOM     15  C13 ZIN AC000       3.478   1.908   0.701  0.00  0.00     0.068 C 
ATOM     16  C11 ZIN AC000       3.746   3.213  -0.052  0.00  0.00     0.227 C 
ATOM     17  C10 ZIN AC000       2.490   4.085  -0.030  0.00  0.00     0.048 C 
ATOM     18  N14 ZIN AC000       4.134   2.920  -1.424  0.00  0.00     0.104 N 
ATOM     19  C9  ZIN AC000       2.064   4.391  -1.477  0.00  0.00     0.061 C 
ATOM     20  C8  ZIN AC000       1.798   3.047  -2.173  0.00  0.00     0.048 C 
ATOM     21  C16 ZIN AC000       3.272   5.017  -2.165  0.00  0.00     0.159 C 
ATOM     22  C6  ZIN AC000       3.077   2.208  -2.152  0.00  0.00     0.227 C 
ATOM     23  C5  ZIN AC000       2.796   0.870  -1.463  0.00  0.00     0.068 C 
ATOM     24  C15 ZIN AC000       4.510   4.160  -2.135  0.00  0.00     0.351 C 
ATOM     25  O17 ZIN AC000       3.244   6.107  -2.684  0.00  0.00    -0.296 OA
ENDBRANCH   1  14
TORSDOF 3
