REMARK  20 active torsions:
REMARK  status: ('A' for Active; 'I' for Inactive)
REMARK    1  A    between atoms: C2_2  and  C18_18 
REMARK    2  A    between atoms: C3_3  and  C4_4 
REMARK    3  A    between atoms: C4_4  and  O6_6 
REMARK    4  A    between atoms: O6_6  and  C7_7 
REMARK    5  A    between atoms: C7_7  and  C8_8 
REMARK    6  A    between atoms: C8_8  and  C9_9 
REMARK    7  A    between atoms: C9_9  and  C10_10 
REMARK    8  A    between atoms: C10_10  and  C11_11 
REMARK    9  A    between atoms: C11_11  and  C12_12 
REMARK   10  A    between atoms: C12_12  and  C13_13 
REMARK   11  A    between atoms: C13_13  and  C14_14 
REMARK   12  A    between atoms: C14_14  and  C15_15 
REMARK   13  A    between atoms: C18_18  and  C19_19 
REMARK   14  A    between atoms: C23_22  and  C25_23 
REMARK   15  A    between atoms: C25_23  and  C26_24 
REMARK   16  A    between atoms: C29_26  and  C31_27 
REMARK   17  A    between atoms: C31_27  and  C34_29 
REMARK   18  A    between atoms: C34_29  and  O37_31 
REMARK   19  A    between atoms: C38_32  and  O40_33 
REMARK   20  A    between atoms: C41_34  and  O43_35 
ROOT
ATOM      1  C19 ZIN AC000      -1.388  -1.390  -1.701  0.00  0.00     0.156 C 
ATOM      2  O21 ZIN AC000      -1.699  -2.430  -0.772  0.00  0.00    -0.382 OA
ATOM      3  C22 ZIN AC000      -2.936  -3.097  -1.034  0.00  0.00     0.175 C 
ATOM      4  C23 ZIN AC000      -2.874  -3.758  -2.414  0.00  0.00     0.043 C 
ATOM      5  C38 ZIN AC000      -2.573  -2.691  -3.470  0.00  0.00     0.155 C 
ATOM      6  C41 ZIN AC000      -1.265  -1.983  -3.107  0.00  0.00     0.176 C 
ENDROOT
BRANCH   1   7
ATOM      7  C18 ZIN AC000      -0.064  -0.733  -1.306  0.00  0.00     0.068 C 
BRANCH   7   8
ATOM      8  C2  ZIN AC000      -0.222  -0.044   0.025  0.00  0.00    -0.075 C 
ATOM      9  C1  ZIN AC000      -0.770   1.358   0.087  0.00  0.00     0.043 C 
ATOM     10  C3  ZIN AC000       0.122  -0.674   1.145  0.00  0.00     0.084 C 
BRANCH  10  11
ATOM     11  C4  ZIN AC000       0.125   0.049   2.425  0.00  0.00     0.283 C 
ATOM     12  O5  ZIN AC000      -0.074   1.248   2.445  0.00  0.00    -0.260 OA
BRANCH  11  13
ATOM     13  O6  ZIN AC000       0.348  -0.616   3.575  0.00  0.00    -0.318 OA
BRANCH  13  14
ATOM     14  C7  ZIN AC000       0.336   0.163   4.801  0.00  0.00     0.179 C 
BRANCH  14  15
ATOM     15  C8  ZIN AC000       0.605  -0.758   5.993  0.00  0.00     0.027 C 
BRANCH  15  16
ATOM     16  C9  ZIN AC000       0.592   0.063   7.284  0.00  0.00     0.002 C 
BRANCH  16  17
ATOM     17  C10 ZIN AC000       0.862  -0.857   8.476  0.00  0.00     0.000 C 
BRANCH  17  18
ATOM     18  C11 ZIN AC000       0.849  -0.037   9.767  0.00  0.00     0.000 C 
BRANCH  18  19
ATOM     19  C12 ZIN AC000       1.119  -0.957  10.959  0.00  0.00     0.001 C 
BRANCH  19  20
ATOM     20  C13 ZIN AC000       1.106  -0.136  12.250  0.00  0.00     0.010 C 
BRANCH  20  21
ATOM     21  C14 ZIN AC000       1.375  -1.057  13.442  0.00  0.00     0.113 C 
BRANCH  21  22
ATOM     22  C15 ZIN AC000       1.363  -0.248  14.714  0.00  0.00     0.172 C 
ATOM     23  O16 ZIN AC000       1.157   0.953  14.671  0.00  0.00    -0.648 OA
ATOM     24  O17 ZIN AC000       1.558  -0.795  15.786  0.00  0.00    -0.648 OA
ENDBRANCH  21  22
ENDBRANCH  20  21
ENDBRANCH  19  20
ENDBRANCH  18  19
ENDBRANCH  17  18
ENDBRANCH  16  17
ENDBRANCH  15  16
ENDBRANCH  14  15
ENDBRANCH  13  14
ENDBRANCH  11  13
ENDBRANCH  10  11
ENDBRANCH   7   8
ENDBRANCH   1   7
BRANCH   6  25
ATOM     25  O43 ZIN AC000      -1.010  -0.937  -4.047  0.00  0.00    -0.390 OA
ATOM     26  H78 ZIN AC000      -0.195  -0.445  -3.877  0.00  0.00     0.210 HD
ENDBRANCH   6  25
BRANCH   5  27
ATOM     27  O40 ZIN AC000      -3.639  -1.740  -3.507  0.00  0.00    -0.392 OA
ATOM     28  H77 ZIN AC000      -3.514  -1.034  -4.155  0.00  0.00     0.210 HD
ENDBRANCH   5  27
BRANCH   4  29
ATOM     29  C25 ZIN AC000      -1.770  -4.816  -2.424  0.00  0.00     0.044 C 
BRANCH  29  30
ATOM     30  C26 ZIN AC000      -2.131  -5.941  -1.452  0.00  0.00     0.152 A 
ATOM     31  C29 ZIN AC000      -1.192  -7.147  -1.376  0.00  0.00     0.157 A 
ATOM     32  O28 ZIN AC000      -1.263  -6.164  -0.339  0.00  0.00    -0.375 OA
BRANCH  31  33
ATOM     33  C31 ZIN AC000      -1.812  -8.519  -1.102  0.00  0.00     0.041 C 
ATOM     34  C33 ZIN AC000      -2.761  -8.887  -2.244  0.00  0.00     0.015 C 
BRANCH  33  35
ATOM     35  C34 ZIN AC000      -0.704  -9.568  -1.001  0.00  0.00     0.120 C 
ATOM     36  C36 ZIN AC000      -1.324 -10.940  -0.727  0.00  0.00     0.040 C 
BRANCH  35  37
ATOM     37  O37 ZIN AC000       0.182  -9.224   0.066  0.00  0.00    -0.396 OA
ATOM     38  H76 ZIN AC000       0.912  -9.848   0.188  0.00  0.00     0.210 HD
ENDBRANCH  35  37
ENDBRANCH  33  35
ENDBRANCH  31  33
ENDBRANCH  29  30
ENDBRANCH   4  29
TORSDOF 20
