REMARK  8 active torsions:
REMARK  status: ('A' for Active; 'I' for Inactive)
REMARK    1  A    between atoms: O2_2  and  C3_3 
REMARK    2  A    between atoms: C7_7  and  O8_8 
REMARK    3  A    between atoms: O8_8  and  C9_9 
REMARK    4  A    between atoms: C17_15  and  C18_16 
REMARK       I    between atoms: C18_16  and  N20_18 
REMARK    5  A    between atoms: N20_18  and  S21_19 
REMARK    6  A    between atoms: S21_19  and  C24_22 
REMARK    7  A    between atoms: C44_40  and  C45_41 
REMARK    8  A    between atoms: C47_43  and  C48_44 
ROOT
ATOM      1  C9  ZIN AC000       3.754  -2.457  -6.286  0.00  0.00     0.130 C 
ATOM      2  C11 ZIN AC000       5.209  -2.679  -5.856  0.00  0.00     0.047 C 
ATOM      3  C12 ZIN AC000       6.101  -2.020  -6.917  0.00  0.00     0.093 C 
ATOM      4  C14 ZIN AC000       7.138  -2.994  -7.399  0.00  0.00     0.223 C 
ATOM      5  O15 ZIN AC000       6.886  -4.177  -7.483  0.00  0.00    -0.273 OA
ATOM      6  N16 ZIN AC000       8.380  -2.515  -7.743  0.00  0.00    -0.342 N 
ATOM      7  C17 ZIN AC000       9.223  -3.552  -8.370  0.00  0.00     0.124 A 
ATOM      8  C27 ZIN AC000      10.479  -3.991  -7.619  0.00  0.00     0.053 A 
ATOM      9  C28 ZIN AC000      10.598  -3.169  -8.905  0.00  0.00     0.048 A 
ATOM     10  C30 ZIN AC000      11.110  -1.763  -8.757  0.00  0.00    -0.023 C 
ATOM     11  C31 ZIN AC000      10.382  -0.720  -9.048  0.00  0.00    -0.030 C 
ATOM     12  C32 ZIN AC000       8.965  -0.866  -9.541  0.00  0.00     0.027 C 
ATOM     13  C33 ZIN AC000       8.139   0.315  -9.017  0.00  0.00     0.005 C 
ATOM     14  C34 ZIN AC000       7.739   1.218 -10.186  0.00  0.00     0.020 C 
ATOM     15  C35 ZIN AC000       6.213   1.374 -10.229  0.00  0.00     0.125 C 
ATOM     16  N36 ZIN AC000       5.644   0.057  -9.858  0.00  0.00    -0.356 N 
ATOM     17  C37 ZIN AC000       5.179  -0.900 -10.865  0.00  0.00     0.152 C 
ATOM     18  C38 ZIN AC000       5.581  -0.209  -8.522  0.00  0.00     0.224 C 
ATOM     19  O39 ZIN AC000       5.826   0.654  -7.706  0.00  0.00    -0.273 OA
ATOM     20  C40 ZIN AC000       5.201  -1.596  -8.082  0.00  0.00     0.093 C 
ATOM     21  C42 ZIN AC000       3.754  -1.629  -7.578  0.00  0.00     0.047 C 
ATOM     22  H64 ZIN AC000       8.669  -1.601  -7.591  0.00  0.00     0.163 HD
ENDROOT
BRANCH   1  23
ATOM     23  O8  ZIN AC000       3.051  -1.751  -5.261  0.00  0.00    -0.345 OA
BRANCH  23  24
ATOM     24  C7  ZIN AC000       2.526  -2.491  -4.253  0.00  0.00     0.084 A 
ATOM     25  C6  ZIN AC000       1.716  -1.893  -3.260  0.00  0.00     0.027 A 
ATOM     26  C5  ZIN AC000       1.433  -0.521  -3.286  0.00  0.00     0.019 A 
ATOM     27  C54 ZIN AC000       1.187  -2.703  -2.224  0.00  0.00     0.079 A 
ATOM     28  C4  ZIN AC000       0.651   0.029  -2.316  0.00  0.00     0.038 A 
ATOM     29  C3  ZIN AC000       0.123  -0.760  -1.290  0.00  0.00     0.076 A 
ATOM     30  C55 ZIN AC000       0.388  -2.110  -1.233  0.00  0.00     0.001 A 
ATOM     31  C56 ZIN AC000      -0.182  -2.947  -0.117  0.00  0.00     0.054 C 
ATOM     32  N53 ZIN AC000       1.456  -4.012  -2.195  0.00  0.00    -0.245 NA
ATOM     33  C44 ZIN AC000       2.212  -4.580  -3.119  0.00  0.00     0.096 A 
ATOM     34  C43 ZIN AC000       2.766  -3.838  -4.171  0.00  0.00     0.072 A 
BRANCH  29  35
ATOM     35  O2  ZIN AC000      -0.654  -0.187  -0.335  0.00  0.00    -0.355 OA
ATOM     36  C1  ZIN AC000      -0.893   1.217  -0.448  0.00  0.00     0.210 C 
ENDBRANCH  29  35
BRANCH  33  37
ATOM     37  C45 ZIN AC000       2.478  -6.032  -3.042  0.00  0.00     0.126 A 
ATOM     38  S52 ZIN AC000       3.457  -6.954  -4.180  0.00  0.00    -0.078 SA
ATOM     39  C51 ZIN AC000       3.148  -8.419  -3.250  0.00  0.00     0.079 A 
ATOM     40  C47 ZIN AC000       2.362  -8.099  -2.214  0.00  0.00     0.046 A 
ATOM     41  N46 ZIN AC000       2.022  -6.836  -2.124  0.00  0.00    -0.243 NA
BRANCH  40  42
ATOM     42  C48 ZIN AC000       1.898  -9.126  -1.214  0.00  0.00     0.030 C 
ATOM     43  C49 ZIN AC000       0.640  -9.819  -1.741  0.00  0.00     0.016 C 
ATOM     44  C50 ZIN AC000       3.001 -10.165  -1.000  0.00  0.00     0.016 C 
ENDBRANCH  40  42
ENDBRANCH  33  37
ENDBRANCH  23  24
ENDBRANCH   1  23
BRANCH   7  45
ATOM     45  C18 ZIN AC000       8.452  -4.634  -9.088  0.00  0.00     0.282 C 
ATOM     46  O19 ZIN AC000       8.804  -5.791  -8.999  0.00  0.00    -0.268 OA
ATOM     47  N20 ZIN AC000       7.372  -4.313  -9.828  0.00  0.00    -0.124 NA
BRANCH  47  48
ATOM     48  S21 ZIN AC000       6.526  -5.499 -10.616  0.00  0.00     0.258 S 
ATOM     49  O22 ZIN AC000       7.451  -6.023 -11.558  0.00  0.00    -0.203 OA
ATOM     50  O23 ZIN AC000       6.005  -6.310  -9.571  0.00  0.00    -0.203 OA
BRANCH  48  51
ATOM     51  C24 ZIN AC000       5.187  -4.614 -11.462  0.00  0.00     0.131 A 
ATOM     52  C26 ZIN AC000       4.208  -5.444 -12.295  0.00  0.00     0.023 A 
ATOM     53  C25 ZIN AC000       5.238  -4.551 -12.990  0.00  0.00     0.023 A 
ENDBRANCH  48  51
ENDBRANCH  47  48
ENDBRANCH   7  45
TORSDOF 8
