REMARK  6 active torsions:
REMARK  status: ('A' for Active; 'I' for Inactive)
REMARK       I    between atoms: N2_2  and  C3_3 
REMARK    1  A    between atoms: C3_3  and  C5_5 
REMARK    2  A    between atoms: C7_7  and  O8_8 
REMARK    3  A    between atoms: O8_8  and  C9_9 
REMARK    4  A    between atoms: C12_12  and  N13_13 
REMARK       I    between atoms: N13_13  and  C14_14 
REMARK       I    between atoms: C14_14  and  N16_16 
REMARK    5  A    between atoms: N16_16  and  C17_17 
REMARK    6  A    between atoms: C22_22  and  C23_23 
ROOT
ATOM      1  C9  <0> d           1.860  -6.268  -3.090  0.00  0.00     0.079 A 
ATOM      2  C10 <0> d           1.246  -6.992  -2.079  0.00  0.00     0.040 A 
ATOM      3  C11 <0> d           1.300  -8.372  -2.085  0.00  0.00     0.035 A 
ATOM      4  C12 <0> d           1.970  -9.036  -3.103  0.00  0.00     0.075 A 
ATOM      5  C28 <0> d           2.586  -8.311  -4.117  0.00  0.00     0.145 A 
ATOM      6  F29 <0> d           3.238  -8.956  -5.109  0.00  0.00    -0.204 F 
ATOM      7  C30 <0> d           2.526  -6.930  -4.112  0.00  0.00     0.081 A 
ENDROOT
BRANCH   4   8
ATOM      8  N13 <0> d           2.025 -10.438  -3.109  0.00  0.00    -0.306 N 
ATOM      9  C14 <0> d           0.978 -11.155  -2.656  0.00  0.00     0.325 C 
ATOM     10  O15 <0> d           0.019 -10.589  -2.167  0.00  0.00    -0.247 OA
ATOM     11  N16 <0> d           0.994 -12.500  -2.745  0.00  0.00    -0.309 N 
ATOM     12  H42 <0> d           1.790 -12.956  -3.061  0.00  0.00     0.170 HD
ATOM     13  H41 <0> d           2.817 -10.890  -3.439  0.00  0.00     0.171 HD
BRANCH  11  14
ATOM     14  C17 <0> d          -0.139 -13.239  -2.383  0.00  0.00     0.037 A 
ATOM     15  C27 <0> d           0.005 -14.484  -1.784  0.00  0.00     0.047 A 
ATOM     16  C22 <0> d          -1.114 -15.208  -1.423  0.00  0.00     0.071 A 
ATOM     17  C20 <0> d          -2.377 -14.699  -1.666  0.00  0.00     0.049 A 
ATOM     18  C19 <0> d          -2.524 -13.462  -2.267  0.00  0.00     0.027 A 
ATOM     19 Cl21 <0> d          -3.782 -15.615  -1.216  0.00  0.00    -0.083 Cl
ATOM     20  C18 <0> d          -1.408 -12.731  -2.626  0.00  0.00     0.031 A 
BRANCH  16  21
ATOM     21  C23 <0> d          -0.958 -16.557  -0.769  0.00  0.00     0.419 C 
ATOM     22  F24 <0> d           0.402 -16.853  -0.629  0.00  0.00    -0.166 F 
ATOM     23  F25 <0> d          -1.563 -16.536   0.493  0.00  0.00    -0.166 F 
ATOM     24  F26 <0> d          -1.569 -17.533  -1.562  0.00  0.00    -0.166 F 
ENDBRANCH  16  21
ENDBRANCH  11  14
ENDBRANCH   4   8
BRANCH   1  25
ATOM     25  O8  <0> d           1.806  -4.910  -3.083  0.00  0.00    -0.311 OA
BRANCH  25  26
ATOM     26  C7  <0> d           2.601  -4.245  -2.207  0.00  0.00     0.079 A 
ATOM     27  C6  <0> d           3.372  -4.936  -1.276  0.00  0.00     0.074 A 
ATOM     28  C5  <0> d           4.173  -4.217  -0.396  0.00  0.00     0.126 A 
ATOM     29  N33 <0> d           4.201  -2.889  -0.439  0.00  0.00    -0.255 NA
ATOM     30  C32 <0> d           3.489  -2.209  -1.311  0.00  0.00     0.120 A 
ATOM     31  C31 <0> d           2.667  -2.854  -2.218  0.00  0.00     0.056 A 
BRANCH  28  32
ATOM     32  C3  <0> d           4.998  -4.936   0.602  0.00  0.00     0.269 C 
ATOM     33  N2  <0> d           5.773  -4.245   1.461  0.00  0.00    -0.360 N 
ATOM     34  C1  <0> d           6.589  -4.956   2.448  0.00  0.00     0.149 C 
ATOM     35  H37 <0> d           5.790  -3.275   1.426  0.00  0.00     0.162 HD
ATOM     36  O4  <0> d           4.977  -6.151   0.646  0.00  0.00    -0.266 OA
ENDBRANCH  28  32
ENDBRANCH  25  26
ENDBRANCH   1  25
TORSDOF 6
