REMARK  7 active torsions:
REMARK  status: ('A' for Active; 'I' for Inactive)
REMARK    1  A    between atoms: C5_5  and  N6_6 
REMARK       I    between atoms: N6_6  and  C7_7 
REMARK    2  A    between atoms: C7_7  and  C9_9 
REMARK    3  A    between atoms: C12_12  and  C13_13 
REMARK    4  A    between atoms: C13_13  and  N14_14 
REMARK    5  A    between atoms: C25_25  and  N26_26 
REMARK    6  A    between atoms: N26_26  and  C27_27 
REMARK    7  A    between atoms: C31_31  and  C32_32 
ROOT
ATOM      1  C1  ZIN AC000      -0.016   1.961   0.413  0.00  0.00     0.050 C 
ATOM      2  C2  ZIN AC000       0.047   0.535  -0.069  0.00  0.00    -0.035 A 
ATOM      3  C3  ZIN AC000      -0.541   0.186  -1.269  0.00  0.00     0.011 A 
ATOM      4  C4  ZIN AC000      -0.487  -1.121  -1.714  0.00  0.00     0.030 A 
ATOM      5  C5  ZIN AC000       0.161  -2.089  -0.956  0.00  0.00     0.037 A 
ATOM      6  C24 ZIN AC000       0.753  -1.741   0.250  0.00  0.00     0.060 A 
ATOM      7  C25 ZIN AC000       0.701  -0.427   0.692  0.00  0.00     0.057 A 
ENDROOT
BRANCH   5   8
ATOM      8  N6  ZIN AC000       0.216  -3.411  -1.408  0.00  0.00    -0.323 N 
ATOM      9  C7  ZIN AC000       0.177  -3.674  -2.729  0.00  0.00     0.256 C 
ATOM     10  O8  ZIN AC000       0.190  -2.761  -3.531  0.00  0.00    -0.267 OA
ATOM     11  H44 ZIN AC000       0.282  -4.139  -0.770  0.00  0.00     0.169 HD
BRANCH   9  12
ATOM     12  C9  ZIN AC000       0.118  -5.073  -3.203  0.00  0.00     0.032 A 
ATOM     13  C23 ZIN AC000       0.078  -5.349  -4.570  0.00  0.00     0.017 A 
ATOM     14  C22 ZIN AC000       0.028  -6.657  -5.006  0.00  0.00     0.010 A 
ATOM     15  C12 ZIN AC000       0.008  -7.694  -4.090  0.00  0.00    -0.033 A 
ATOM     16  C11 ZIN AC000       0.042  -7.427  -2.733  0.00  0.00     0.010 A 
ATOM     17  C10 ZIN AC000       0.098  -6.124  -2.284  0.00  0.00     0.017 A 
BRANCH  15  18
ATOM     18  C13 ZIN AC000      -0.052  -9.120  -4.573  0.00  0.00     0.273 C 
BRANCH  18  19
ATOM     19  N14 ZIN AC000      -1.456  -9.534  -4.704  0.00  0.00    -0.064 N 
ATOM     20  H15 ZIN AC000      -1.933  -9.385  -3.828  0.00  0.00     0.280 HD
ATOM     21  C21 ZIN AC000      -2.104  -8.739  -5.756  0.00  0.00     0.265 C 
ATOM     22  C20 ZIN AC000      -3.571  -9.156  -5.880  0.00  0.00     0.299 C 
ATOM     23  N18 ZIN AC000      -3.644 -10.587  -6.208  0.00  0.00     0.087 N 
ATOM     24  C17 ZIN AC000      -2.977 -11.394  -5.177  0.00  0.00     0.299 C 
ATOM     25  C19 ZIN AC000      -5.037 -11.015  -6.392  0.00  0.00     0.310 C 
ATOM     26  C16 ZIN AC000      -1.515 -10.958  -5.058  0.00  0.00     0.265 C 
ENDBRANCH  18  19
ENDBRANCH  15  18
ENDBRANCH   9  12
ENDBRANCH   5   8
BRANCH   7  27
ATOM     27  N26 ZIN AC000       1.297  -0.073   1.906  0.00  0.00    -0.188 N 
ATOM     28  H63 ZIN AC000       1.587   0.841   2.056  0.00  0.00     0.184 HD
BRANCH  27  29
ATOM     29  C27 ZIN AC000       1.473  -1.026   2.895  0.00  0.00     0.727 A 
ATOM     30  N38 ZIN AC000       2.155  -0.707   3.984  0.00  0.00    -0.062 NA
ATOM     31  C31 ZIN AC000       2.338  -1.599   4.955  0.00  0.00     0.089 A 
ATOM     32  C30 ZIN AC000       1.808  -2.884   4.803  0.00  0.00     0.053 A 
ATOM     33  C29 ZIN AC000       1.107  -3.175   3.646  0.00  0.00     0.139 A 
ATOM     34  N28 ZIN AC000       0.960  -2.236   2.725  0.00  0.00    -0.075 NA
BRANCH  31  35
ATOM     35  C32 ZIN AC000       3.098  -1.238   6.176  0.00  0.00     0.011 A 
ATOM     36  C37 ZIN AC000       3.384  -2.201   7.143  0.00  0.00     0.130 A 
ATOM     37  N36 ZIN AC000       4.064  -1.882   8.225  0.00  0.00    -0.272 NA
ATOM     38  C35 ZIN AC000       4.489  -0.652   8.444  0.00  0.00     0.116 A 
ATOM     39  C34 ZIN AC000       4.240   0.360   7.535  0.00  0.00     0.020 A 
ATOM     40  C33 ZIN AC000       3.534   0.074   6.379  0.00  0.00     0.017 A 
ENDBRANCH  31  35
ENDBRANCH  27  29
ENDBRANCH   7  27
TORSDOF 7
