REMARK  1 active torsions:
REMARK  status: ('A' for Active; 'I' for Inactive)
REMARK    1  A    between atoms: N1_1  and  C2_2 
ROOT
ATOM      1  C2  <0> d           0.002  -0.004   0.002  0.00  0.00     0.167 A 
ATOM      2  N3  <0> d          -1.135  -0.686   0.004  0.00  0.00    -0.172 NA
ATOM      3  C4  <0> d          -1.130  -2.018  -0.004  0.00  0.00     0.369 A 
ATOM      4  O5  <0> d          -2.190  -2.622  -0.002  0.00  0.00    -0.242 OA
ATOM      5  N6  <0> d           0.025  -2.709  -0.013  0.00  0.00    -0.202 NA
ATOM      6  C7  <0> d           1.221  -2.052  -0.015  0.00  0.00     0.168 A 
ATOM      7  C8  <0> d           1.232  -0.697  -0.013  0.00  0.00     0.179 A 
ATOM      8  F9  <0> d           2.401  -0.020  -0.015  0.00  0.00    -0.201 F 
ENDROOT
BRANCH   1   9
ATOM      9  N1  <0> d          -0.017   1.372   0.010  0.00  0.00    -0.381 N 
ATOM     10  H10 <0> d           0.817   1.868   0.004  0.00  0.00     0.157 HD
ATOM     11  H11 <0> d          -0.863   1.846   0.016  0.00  0.00     0.157 HD
ENDBRANCH   1   9
TORSDOF 1
