REMARK  8 active torsions:
REMARK  status: ('A' for Active; 'I' for Inactive)
REMARK    1  A    between atoms: C2_2  and  C19_19 
REMARK    2  A    between atoms: C3_3  and  C4_4 
REMARK    3  A    between atoms: C4_4  and  C5_5 
REMARK    4  A    between atoms: C5_5  and  C6_6 
REMARK    5  A    between atoms: C6_6  and  C8_8 
REMARK    6  A    between atoms: C8_8  and  C9_9 
REMARK    7  A    between atoms: C9_9  and  C10_10 
REMARK    8  A    between atoms: C19_19  and  C20_20 
ROOT
ATOM      1  C6  ZIN AC000       0.528  -0.122   5.068  0.00  0.00    -0.062 C 
ATOM      2  C7  ZIN AC000       0.735  -0.878   6.355  0.00  0.00     0.048 C 
ENDROOT
BRANCH   1   3
ATOM      3  C5  ZIN AC000       0.392  -0.800   3.892  0.00  0.00     0.007 C 
BRANCH   3   4
ATOM      4  C4  ZIN AC000       0.200  -0.097   2.695  0.00  0.00     0.001 C 
BRANCH   4   5
ATOM      5  C3  ZIN AC000       0.062  -0.781   1.508  0.00  0.00     0.007 C 
ATOM      6  C2  ZIN AC000      -0.130  -0.078   0.312  0.00  0.00    -0.056 C 
ATOM      7  C1  ZIN AC000      -0.185   1.428   0.324  0.00  0.00     0.048 C 
BRANCH   6   8
ATOM      8  C19 ZIN AC000      -0.267  -0.763  -0.874  0.00  0.00     0.091 C 
BRANCH   8   9
ATOM      9  C20 ZIN AC000      -0.317  -0.060  -2.089  0.00  0.00     0.199 C 
ATOM     10  O21 ZIN AC000      -0.124   1.260  -2.104  0.00  0.00    -0.644 OA
ATOM     11  O22 ZIN AC000      -0.557  -0.712  -3.228  0.00  0.00    -0.644 OA
ENDBRANCH   8   9
ENDBRANCH   6   8
ENDBRANCH   4   5
ENDBRANCH   3   4
ENDBRANCH   1   3
BRANCH   1  12
ATOM     12  C8  ZIN AC000       0.476   1.283   5.079  0.00  0.00     0.007 C 
BRANCH  12  13
ATOM     13  C9  ZIN AC000       0.612   1.959   6.250  0.00  0.00     0.009 C 
BRANCH  13  14
ATOM     14  C10 ZIN AC000       0.457   3.368   6.277  0.00  0.00    -0.048 C 
ATOM     15  C16 ZIN AC000      -0.592   3.948   7.180  0.00  0.00    -0.020 C 
ATOM     16  C15 ZIN AC000      -0.329   5.440   7.402  0.00  0.00     0.014 C 
ATOM     17  C17 ZIN AC000      -1.974   3.765   6.548  0.00  0.00     0.020 C 
ATOM     18  C18 ZIN AC000      -0.553   3.221   8.526  0.00  0.00     0.020 C 
ATOM     19  C14 ZIN AC000      -0.125   6.103   6.034  0.00  0.00     0.005 C 
ATOM     20  C13 ZIN AC000       1.191   5.596   5.439  0.00  0.00     0.034 C 
ATOM     21  C11 ZIN AC000       1.242   4.097   5.502  0.00  0.00    -0.077 C 
ATOM     22  C12 ZIN AC000       2.245   3.383   4.633  0.00  0.00     0.044 C 
ENDBRANCH  13  14
ENDBRANCH  12  13
ENDBRANCH   1  12
TORSDOF 8
