REMARK  2 active torsions:
REMARK  status: ('A' for Active; 'I' for Inactive)
REMARK    1  A    between atoms: C4_4  and  C5_5 
REMARK       I    between atoms: C5_5  and  N7_7 
REMARK    2  A    between atoms: N7_7  and  C8_8 
ROOT
ATOM      1  C5  ZIN AC000       0.038  -3.120  -1.755  0.00  0.00     0.273 C 
ATOM      2  O6  ZIN AC000       0.057  -4.271  -1.361  0.00  0.00    -0.266 OA
ATOM      3  N7  ZIN AC000       0.029  -2.861  -3.078  0.00  0.00    -0.351 N 
ATOM      4  H29 ZIN AC000       0.014  -1.943  -3.392  0.00  0.00     0.163 HD
ENDROOT
BRANCH   1   5
ATOM      5  C4  ZIN AC000       0.027  -2.009  -0.786  0.00  0.00     0.157 A 
ATOM      6  N3  ZIN AC000       0.007  -0.723  -1.062  0.00  0.00    -0.166 NA
ATOM      7  N2  ZIN AC000       0.002  -0.004   0.002  0.00  0.00    -0.273 N 
ATOM      8  C1  ZIN AC000      -0.018   1.461   0.010  0.00  0.00     0.180 C 
ATOM      9  C25 ZIN AC000       0.023  -0.784   1.129  0.00  0.00     0.065 A 
ATOM     10  C20 ZIN AC000       0.035  -2.119   0.679  0.00  0.00     0.028 A 
ATOM     11  C24 ZIN AC000       0.020  -0.528   2.496  0.00  0.00     0.032 A 
ATOM     12  C21 ZIN AC000       0.054  -3.165   1.595  0.00  0.00     0.016 A 
ATOM     13  C22 ZIN AC000       0.056  -2.891   2.935  0.00  0.00     0.001 A 
ATOM     14  C23 ZIN AC000       0.039  -1.578   3.386  0.00  0.00     0.002 A 
ENDBRANCH   1   5
BRANCH   3  15
ATOM     15  C8  ZIN AC000       0.040  -3.971  -4.046  0.00  0.00     0.088 C 
ATOM     16  C17 ZIN AC000       0.637  -3.471  -5.357  0.00  0.00     0.050 C 
ATOM     17  C15 ZIN AC000       0.448  -4.476  -6.489  0.00  0.00     0.081 C 
ATOM     18  C14 ZIN AC000      -0.418  -3.833  -7.584  0.00  0.00     0.025 C 
ATOM     19  N18 ZIN AC000      -0.212  -5.687  -6.034  0.00  0.00    -0.408 N 
ATOM     20  C13 ZIN AC000      -1.812  -3.544  -7.025  0.00  0.00     0.004 C 
ATOM     21  C12 ZIN AC000      -2.436  -4.827  -6.473  0.00  0.00     0.025 C 
ATOM     22  C10 ZIN AC000      -1.502  -5.434  -5.414  0.00  0.00     0.081 C 
ATOM     23  C9  ZIN AC000      -1.389  -4.466  -4.241  0.00  0.00     0.050 C 
ATOM     24  C19 ZIN AC000       0.625  -6.683  -5.403  0.00  0.00     0.144 C 
ENDBRANCH   3  15
TORSDOF 2
