REMARK  5 active torsions:
REMARK  status: ('A' for Active; 'I' for Inactive)
REMARK    1  A    between atoms: C21_18  and  O23_19 
REMARK    2  A    between atoms: C27_23  and  O28_24 
REMARK    3  A    between atoms: C27_23  and  C29_25 
REMARK    4  A    between atoms: C29_25  and  C31_27 
REMARK    5  A    between atoms: C31_27  and  O32_28 
ROOT
ATOM      1  C1  <0> d           1.091   1.179   1.133  0.00  0.00     0.013 C 
ATOM      2  C2  <0> d           1.038  -0.342   0.977  0.00  0.00     0.025 C 
ATOM      3  C4  <0> d           1.362  -0.738  -0.490  0.00  0.00     0.013 C 
ATOM      4  C5  <0> d           2.168  -2.032  -0.325  0.00  0.00     0.005 C 
ATOM      5  C7  <0> d           3.063  -2.405  -1.493  0.00  0.00     0.035 C 
ATOM      6  C9  <0> d           2.212  -2.667  -2.737  0.00  0.00     0.013 C 
ATOM      7  C10 <0> d           3.122  -3.004  -3.923  0.00  0.00     0.036 C 
ATOM      8  C11 <0> d           4.005  -4.171  -3.523  0.00  0.00    -0.061 A 
ATOM      9  C12 <0> d           4.067  -5.232  -4.316  0.00  0.00     0.058 A 
ATOM     10  C13 <0> d           4.897  -6.391  -3.951  0.00  0.00     0.172 A 
ATOM     11  O14 <0> d           4.987  -7.349  -4.695  0.00  0.00    -0.289 OA
ATOM     12  C15 <0> d           5.616  -6.364  -2.667  0.00  0.00     0.052 A 
ATOM     13  C16 <0> d           5.545  -5.291  -1.894  0.00  0.00    -0.006 A 
ATOM     14  C17 <0> d           4.774  -4.064  -2.239  0.00  0.00     0.036 A 
ATOM     15  C18 <0> d           5.769  -2.911  -2.384  0.00  0.00     0.028 C 
ATOM     16  C19 <0> d           3.834  -3.674  -1.095  0.00  0.00     0.147 C 
ATOM     17  F20 <0> d           2.911  -4.705  -0.886  0.00  0.00    -0.238 F 
ATOM     18  C21 <0> d           4.644  -3.486   0.183  0.00  0.00     0.160 C 
ATOM     19  C24 <0> d           3.772  -2.968   1.338  0.00  0.00     0.048 C 
ATOM     20  C25 <0> d           3.080  -1.683   0.881  0.00  0.00     0.001 C 
ATOM     21  C26 <0> d           4.123  -0.681   0.382  0.00  0.00     0.019 C 
ATOM     22  C27 <0> d           2.123  -1.006   1.860  0.00  0.00     0.131 C 
ENDROOT
BRANCH  22  23
ATOM     23  O28 <0> d           1.563  -1.972   2.752  0.00  0.00    -0.381 OA
ATOM     24  H54 <0> d           0.947  -1.600   3.398  0.00  0.00     0.211 HD
ENDBRANCH  22  23
BRANCH  22  25
ATOM     25  C29 <0> d           2.843   0.067   2.635  0.00  0.00     0.185 C 
ATOM     26  O30 <0> d           3.433   0.943   2.049  0.00  0.00    -0.292 OA
BRANCH  25  27
ATOM     27  C31 <0> d           2.826   0.048   4.142  0.00  0.00     0.245 C 
BRANCH  27  28
ATOM     28  O32 <0> d           3.572   1.160   4.641  0.00  0.00    -0.393 OA
ATOM     29  H57 <0> d           3.604   1.210   5.606  0.00  0.00     0.209 HD
ENDBRANCH  27  28
ENDBRANCH  25  27
ENDBRANCH  22  25
BRANCH  18  30
ATOM     30  O23 <0> d           5.693  -2.547  -0.064  0.00  0.00    -0.392 OA
ATOM     31  H48 <0> d           6.255  -2.373   0.704  0.00  0.00     0.210 HD
ENDBRANCH  18  30
TORSDOF 5
