REMARK  7 active torsions:
REMARK  status: ('A' for Active; 'I' for Inactive)
REMARK    1  A    between atoms: C2_2  and  C3_3 
REMARK    2  A    between atoms: C3_3  and  N4_4 
REMARK    3  A    between atoms: N4_4  and  C6_6 
REMARK    4  A    between atoms: N4_4  and  C13_13 
REMARK    5  A    between atoms: C6_6  and  C7_7 
REMARK    6  A    between atoms: C7_7  and  C8_8 
REMARK    7  A    between atoms: C18_17  and  O19_18 
ROOT
ATOM      1  C13 ZIN AC000       1.346  -2.726  -2.252  0.00  0.00     0.192 C 
ATOM      2  C15 ZIN AC000       2.802  -2.257  -2.155  0.00  0.00     0.038 C 
ATOM      3  C16 ZIN AC000       3.563  -2.794  -3.365  0.00  0.00     0.044 C 
ATOM      4  C17 ZIN AC000       3.341  -4.276  -3.515  0.00  0.00    -0.019 A 
ATOM      5  C18 ZIN AC000       4.236  -4.989  -4.312  0.00  0.00     0.072 A 
ATOM      6  C20 ZIN AC000       4.080  -6.353  -4.492  0.00  0.00     0.037 A 
ATOM      7  C21 ZIN AC000       3.032  -7.010  -3.879  0.00  0.00     0.003 A 
ATOM      8  C22 ZIN AC000       2.148  -6.304  -3.088  0.00  0.00     0.008 A 
ATOM      9  C23 ZIN AC000       2.301  -4.936  -2.902  0.00  0.00    -0.047 A 
ATOM     10  C24 ZIN AC000       1.307  -4.234  -2.014  0.00  0.00     0.072 C 
ENDROOT
BRANCH   1  11
ATOM     11  N4  ZIN AC000       0.537  -2.043  -1.233  0.00  0.00    -0.066 N 
ATOM     12  H5  ZIN AC000       0.906  -2.251  -0.317  0.00  0.00     0.280 HD
BRANCH  11  13
ATOM     13  C3  ZIN AC000       0.583  -0.593  -1.463  0.00  0.00     0.235 C 
BRANCH  13  14
ATOM     14  C2  ZIN AC000       0.131  -0.288  -2.893  0.00  0.00     0.023 C 
ATOM     15  C1  ZIN AC000       0.132   1.225  -3.116  0.00  0.00     0.007 C 
ENDBRANCH  13  14
ENDBRANCH  11  13
BRANCH  11  16
ATOM     16  C6  ZIN AC000      -0.853  -2.509  -1.319  0.00  0.00     0.240 C 
BRANCH  16  17
ATOM     17  C7  ZIN AC000      -1.669  -1.890  -0.182  0.00  0.00     0.074 C 
BRANCH  17  18
ATOM     18  C8  ZIN AC000      -3.059  -2.474  -0.185  0.00  0.00    -0.016 A 
ATOM     19  S12 ZIN AC000      -4.431  -1.821  -1.070  0.00  0.00    -0.106 SA
ATOM     20  C11 ZIN AC000      -5.470  -3.105  -0.467  0.00  0.00     0.050 A 
ATOM     21  C10 ZIN AC000      -4.768  -3.910   0.332  0.00  0.00     0.008 A 
ATOM     22  C9  ZIN AC000      -3.437  -3.562   0.487  0.00  0.00     0.015 A 
ENDBRANCH  17  18
ENDBRANCH  16  17
ENDBRANCH  11  16
ENDBRANCH   1  11
BRANCH   5  23
ATOM     23  O19 ZIN AC000       5.267  -4.341  -4.915  0.00  0.00    -0.360 OA
ATOM     24  H43 ZIN AC000       6.074  -4.305  -4.384  0.00  0.00     0.217 HD
ENDBRANCH   5  23
TORSDOF 7
