REMARK  8 active torsions:
REMARK  status: ('A' for Active; 'I' for Inactive)
REMARK    1  A    between atoms: C3_3  and  C5_4 
REMARK    2  A    between atoms: C5_4  and  C6_5 
REMARK    3  A    between atoms: C6_5  and  C7_6 
REMARK    4  A    between atoms: C7_6  and  O9_7 
REMARK    5  A    between atoms: C7_6  and  C10_8 
REMARK    6  A    between atoms: C17_15  and  C19_16 
REMARK    7  A    between atoms: C22_19  and  O23_20 
REMARK    8  A    between atoms: N26_23  and  C27_24 
ROOT
ATOM      1  O1  ZIN AC000       0.002  -0.004   0.002  0.00  0.00    -0.272 OA
ATOM      2  C2  ZIN AC000      -0.014   1.209   0.009  0.00  0.00     0.231 A 
ATOM      3  C3  ZIN AC000      -1.121   2.221   0.031  0.00  0.00     0.106 A 
ATOM      4  C17 ZIN AC000       0.004   3.249   0.020  0.00  0.00     0.139 A 
ATOM      5  N26 ZIN AC000       0.948   2.139   0.004  0.00  0.00    -0.308 N 
ENDROOT
BRANCH   3   6
ATOM      6  C5  ZIN AC000      -1.985   2.226  -1.231  0.00  0.00     0.019 C 
BRANCH   6   7
ATOM      7  C6  ZIN AC000      -3.071   1.156  -1.110  0.00  0.00     0.037 C 
BRANCH   7   8
ATOM      8  C7  ZIN AC000      -3.935   1.161  -2.373  0.00  0.00     0.151 C 
BRANCH   8   9
ATOM      9  O9  ZIN AC000      -4.636   2.403  -2.465  0.00  0.00    -0.391 OA
ATOM     10  H38 ZIN AC000      -5.223   2.580  -1.717  0.00  0.00     0.210 HD
ENDBRANCH   8   9
BRANCH   8  11
ATOM     11  C10 ZIN AC000      -4.927   0.028  -2.307  0.00  0.00    -0.029 A 
ATOM     12  C16 ZIN AC000      -4.635  -1.181  -2.910  0.00  0.00     0.013 A 
ATOM     13  C15 ZIN AC000      -5.541  -2.223  -2.847  0.00  0.00     0.043 A 
ATOM     14  C13 ZIN AC000      -6.747  -2.051  -2.188  0.00  0.00     0.116 A 
ATOM     15  C12 ZIN AC000      -7.040  -0.838  -1.589  0.00  0.00     0.043 A 
ATOM     16  F14 ZIN AC000      -7.636  -3.066  -2.130  0.00  0.00    -0.206 F 
ATOM     17  C11 ZIN AC000      -6.130   0.201  -1.649  0.00  0.00     0.013 A 
ENDBRANCH   8  11
ENDBRANCH   7   8
ENDBRANCH   6   7
ENDBRANCH   3   6
BRANCH   4  18
ATOM     18  C19 ZIN AC000       0.075   4.075   1.278  0.00  0.00    -0.034 A 
ATOM     19  C25 ZIN AC000      -0.459   5.351   1.297  0.00  0.00     0.012 A 
ATOM     20  C24 ZIN AC000      -0.399   6.108   2.451  0.00  0.00     0.037 A 
ATOM     21  C22 ZIN AC000       0.206   5.593   3.587  0.00  0.00     0.065 A 
ATOM     22  C21 ZIN AC000       0.746   4.315   3.564  0.00  0.00     0.037 A 
ATOM     23  C20 ZIN AC000       0.679   3.559   2.409  0.00  0.00     0.012 A 
BRANCH  21  24
ATOM     24  O23 ZIN AC000       0.270   6.338   4.722  0.00  0.00    -0.361 OA
ATOM     25  H45 ZIN AC000       1.064   6.886   4.788  0.00  0.00     0.217 HD
ENDBRANCH  21  24
ENDBRANCH   4  18
BRANCH   5  26
ATOM     26  C27 ZIN AC000       2.346   2.070  -0.013  0.00  0.00     0.038 A 
ATOM     27  C33 ZIN AC000       2.982   0.836  -0.025  0.00  0.00     0.033 A 
ATOM     28  C32 ZIN AC000       4.362   0.771  -0.049  0.00  0.00     0.044 A 
ATOM     29  C30 ZIN AC000       5.111   1.935  -0.049  0.00  0.00     0.116 A 
ATOM     30  C29 ZIN AC000       4.479   3.167  -0.031  0.00  0.00     0.044 A 
ATOM     31  F31 ZIN AC000       6.460   1.869  -0.067  0.00  0.00    -0.206 F 
ATOM     32  C28 ZIN AC000       3.100   3.237  -0.014  0.00  0.00     0.033 A 
ENDBRANCH   5  26
TORSDOF 8
