REMARK  1 active torsions:
REMARK  status: ('A' for Active; 'I' for Inactive)
REMARK    1  A    between atoms: C4_4  and  O5_5 
ROOT
ATOM      1  C1  ZIN AC000      -0.018   1.503   0.010  0.00  0.00     0.050 C 
ATOM      2  C2  ZIN AC000       0.002  -0.004   0.002  0.00  0.00    -0.037 A 
ATOM      3  C3  ZIN AC000       0.006  -0.688  -1.198  0.00  0.00     0.045 A 
ATOM      4  C4  ZIN AC000       0.025  -2.075  -1.206  0.00  0.00     0.066 A 
ATOM      5  C6  ZIN AC000       0.040  -2.773  -0.007  0.00  0.00     0.045 A 
ATOM      6  C7  ZIN AC000       0.036  -2.085   1.192  0.00  0.00    -0.037 A 
ATOM      7  C8  ZIN AC000       0.053  -2.843   2.494  0.00  0.00     0.050 C 
ATOM      8  C9  ZIN AC000       0.023  -0.702   1.197  0.00  0.00     0.046 A 
ATOM      9 Cl10 ZIN AC000       0.018   0.160   2.704  0.00  0.00    -0.083 Cl
ENDROOT
BRANCH   4  10
ATOM     10  O5  ZIN AC000       0.029  -2.749  -2.386  0.00  0.00    -0.361 OA
ATOM     11  H15 ZIN AC000       0.913  -2.932  -2.731  0.00  0.00     0.217 HD
ENDBRANCH   4  10
TORSDOF 1
