REMARK  3 active torsions:
REMARK  status: ('A' for Active; 'I' for Inactive)
REMARK    1  A    between atoms: N1_1  and  C2_2 
REMARK    2  A    between atoms: C5_5  and  S6_6 
REMARK    3  A    between atoms: S6_6  and  N7_7 
ROOT
ATOM      1  C2  <0> d           0.002  -0.004   0.002  0.00  0.00     0.025 A 
ATOM      2  C3  <0> d          -1.190  -0.716   0.004  0.00  0.00     0.030 A 
ATOM      3  C4  <0> d          -1.168  -2.097  -0.004  0.00  0.00     0.027 A 
ATOM      4  C5  <0> d           0.040  -2.771  -0.014  0.00  0.00     0.079 A 
ATOM      5  C10 <0> d           1.229  -2.065  -0.015  0.00  0.00     0.027 A 
ATOM      6  C11 <0> d           1.214  -0.684  -0.013  0.00  0.00     0.030 A 
ENDROOT
BRANCH   4   7
ATOM      7  S6  <0> d           0.064  -4.533  -0.024  0.00  0.00     0.256 S 
ATOM      8  O8  <0> d           1.321  -4.920   0.512  0.00  0.00    -0.201 OA
ATOM      9  O9  <0> d          -1.178  -4.954   0.524  0.00  0.00    -0.201 OA
BRANCH   7  10
ATOM     10  N7  <0> d           0.063  -5.014  -1.609  0.00  0.00    -0.324 N 
ATOM     11  H16 <0> d           0.051  -4.351  -2.317  0.00  0.00     0.169 HD
ATOM     12  H17 <0> d           0.075  -5.958  -1.829  0.00  0.00     0.169 HD
ENDBRANCH   7  10
ENDBRANCH   4   7
BRANCH   1  13
ATOM     13  N1  <0> d          -0.017   1.393   0.010  0.00  0.00    -0.399 N 
ATOM     14  H12 <0> d           0.817   1.889   0.004  0.00  0.00     0.156 HD
ATOM     15  H13 <0> d          -0.863   1.866   0.016  0.00  0.00     0.156 HD
ENDBRANCH   1  13
TORSDOF 3
