REMARK  10 active torsions:
REMARK  status: ('A' for Active; 'I' for Inactive)
REMARK    1  A    between atoms: C2_2  and  O3_3 
REMARK    2  A    between atoms: O3_3  and  C4_4 
REMARK    3  A    between atoms: C4_4  and  C6_6 
REMARK    4  A    between atoms: C6_6  and  C8_7 
REMARK    5  A    between atoms: C6_6  and  N16_15 
REMARK    6  A    between atoms: C8_7  and  C9_8 
REMARK    7  A    between atoms: C9_8  and  C10_9 
REMARK    8  A    between atoms: N16_15  and  C17_16 
REMARK    9  A    between atoms: N27_25  and  C28_26 
REMARK   10  A    between atoms: C28_26  and  C29_27 
ROOT
ATOM      1  C17 ZIN AC000       2.585  -4.337  -1.713  0.00  0.00     0.313 C 
ATOM      2  C19 ZIN AC000       2.220  -5.708  -1.143  0.00  0.00     0.050 C 
ATOM      3  C20 ZIN AC000       3.489  -6.420  -0.669  0.00  0.00     0.043 C 
ATOM      4  C21 ZIN AC000       4.380  -5.459   0.072  0.00  0.00    -0.031 A 
ATOM      5  C22 ZIN AC000       4.449  -5.496   1.451  0.00  0.00     0.009 A 
ATOM      6  C23 ZIN AC000       5.279  -4.618   2.125  0.00  0.00     0.001 A 
ATOM      7  C24 ZIN AC000       6.042  -3.703   1.422  0.00  0.00     0.002 A 
ATOM      8  C25 ZIN AC000       5.974  -3.659   0.043  0.00  0.00     0.030 A 
ATOM      9  C26 ZIN AC000       5.137  -4.535  -0.633  0.00  0.00     0.044 A 
ATOM     10  N27 ZIN AC000       5.031  -4.482  -2.030  0.00  0.00    -0.306 N 
ATOM     11  C32 ZIN AC000       3.805  -4.437  -2.585  0.00  0.00     0.258 C 
ATOM     12  O33 ZIN AC000       3.686  -4.477  -3.791  0.00  0.00    -0.271 OA
ENDROOT
BRANCH   1  13
ATOM     13  N16 ZIN AC000       1.461  -3.829  -2.510  0.00  0.00     0.111 N 
ATOM     14  H48 ZIN AC000       0.581  -4.165  -2.150  0.00  0.00     0.318 HD
BRANCH  13  15
ATOM     15  C6  ZIN AC000       1.479  -2.361  -2.569  0.00  0.00     0.320 C 
BRANCH  15  16
ATOM     16  C4  ZIN AC000       0.786  -1.801  -1.353  0.00  0.00     0.292 C 
ATOM     17  O5  ZIN AC000       0.325  -2.548  -0.523  0.00  0.00    -0.263 OA
BRANCH  16  18
ATOM     18  O3  ZIN AC000       0.682  -0.472  -1.193  0.00  0.00    -0.320 OA
BRANCH  18  19
ATOM     19  C2  ZIN AC000       0.002  -0.004   0.002  0.00  0.00     0.174 C 
ATOM     20  C1  ZIN AC000      -0.019   1.526   0.010  0.00  0.00     0.034 C 
ENDBRANCH  18  19
ENDBRANCH  16  18
ENDBRANCH  15  16
BRANCH  15  21
ATOM     21  C8  ZIN AC000       0.752  -1.892  -3.831  0.00  0.00     0.051 C 
BRANCH  21  22
ATOM     22  C9  ZIN AC000       1.525  -2.356  -5.067  0.00  0.00     0.041 C 
BRANCH  22  23
ATOM     23  C10 ZIN AC000       0.809  -1.895  -6.310  0.00  0.00    -0.058 A 
ATOM     24  C15 ZIN AC000       1.113  -0.666  -6.867  0.00  0.00     0.007 A 
ATOM     25  C14 ZIN AC000       0.459  -0.245  -8.009  0.00  0.00     0.001 A 
ATOM     26  C13 ZIN AC000      -0.504  -1.048  -8.590  0.00  0.00     0.000 A 
ATOM     27  C12 ZIN AC000      -0.812  -2.274  -8.031  0.00  0.00     0.001 A 
ATOM     28  C11 ZIN AC000      -0.155  -2.697  -6.891  0.00  0.00     0.007 A 
ENDBRANCH  22  23
ENDBRANCH  21  22
ENDBRANCH  15  21
ENDBRANCH  13  15
ENDBRANCH   1  13
BRANCH  10  29
ATOM     29  C28 ZIN AC000       6.232  -4.476  -2.869  0.00  0.00     0.245 C 
BRANCH  29  30
ATOM     30  C29 ZIN AC000       6.614  -5.894  -3.209  0.00  0.00     0.191 C 
ATOM     31  O30 ZIN AC000       5.945  -6.823  -2.788  0.00  0.00    -0.647 OA
ATOM     32  O31 ZIN AC000       7.592  -6.112  -3.904  0.00  0.00    -0.647 OA
ENDBRANCH  29  30
ENDBRANCH  10  29
TORSDOF 10
