REMARK  4 active torsions:
REMARK  status: ('A' for Active; 'I' for Inactive)
REMARK    1  A    between atoms: O2_2  and  C3_3 
REMARK    2  A    between atoms: C4_4  and  N5_5 
REMARK    3  A    between atoms: N18_17  and  C19_18 
REMARK    4  A    between atoms: C23_22  and  C24_23 
ROOT
ATOM      1  C3  <0> d          -1.442  -0.186  -0.042  0.00  0.00     0.125 A 
ATOM      2  C4  <0> d          -2.170  -0.285   1.137  0.00  0.00     0.105 A 
ATOM      3  C13 <0> d          -3.408  -0.930   1.152  0.00  0.00     0.146 A 
ATOM      4  F14 <0> d          -4.106  -1.018   2.306  0.00  0.00    -0.204 F 
ATOM      5  C15 <0> d          -3.918  -1.473   0.006  0.00  0.00     0.062 A 
ATOM      6  C16 <0> d          -3.198  -1.383  -1.188  0.00  0.00     0.048 A 
ATOM      7  C17 <0> d          -1.953  -0.730  -1.218  0.00  0.00     0.085 A 
ATOM      8  N18 <0> d          -1.241  -0.642  -2.398  0.00  0.00    -0.348 N 
ATOM      9  C22 <0> d          -1.683  -1.158  -3.551  0.00  0.00     0.114 A 
ATOM     10  C23 <0> d          -2.891  -1.822  -3.644  0.00  0.00     0.107 A 
ATOM     11  C27 <0> d          -3.724  -1.959  -2.437  0.00  0.00     0.203 A 
ATOM     12  O28 <0> d          -4.797  -2.536  -2.468  0.00  0.00    -0.286 OA
ENDROOT
BRANCH   2  13
ATOM     13  N5  <0> d          -1.661   0.265   2.314  0.00  0.00    -0.372 N 
ATOM     14  C12 <0> d          -1.959   1.656   2.688  0.00  0.00     0.158 C 
ATOM     15  C9  <0> d          -0.648   2.370   3.010  0.00  0.00     0.234 C 
ATOM     16  N8  <0> d           0.093   1.600   4.018  0.00  0.00     0.090 N 
ATOM     17  C11 <0> d          -0.945   3.769   3.553  0.00  0.00     0.044 C 
ATOM     18  C7  <0> d           0.464   0.273   3.509  0.00  0.00     0.289 C 
ATOM     19  H36 <0> d          -0.434   1.524   4.875  0.00  0.00     0.316 HD
ATOM     20  C6  <0> d          -0.807  -0.529   3.211  0.00  0.00     0.153 C 
ENDBRANCH   2  13
BRANCH   1  21
ATOM     21  O2  <0> d          -0.236   0.445  -0.048  0.00  0.00    -0.351 OA
ATOM     22  C1  <0> d          -0.240   1.849  -0.310  0.00  0.00     0.210 C 
ENDBRANCH   1  21
BRANCH   8  23
ATOM     23  C19 <0> d           0.052   0.046  -2.387  0.00  0.00     0.090 A 
ATOM     24  C21 <0> d           0.159   1.362  -3.159  0.00  0.00     0.028 A 
ATOM     25  C20 <0> d           0.834   0.101  -3.701  0.00  0.00     0.028 A 
ENDBRANCH   8  23
BRANCH  10  26
ATOM     26  C24 <0> d          -3.341  -2.375  -4.926  0.00  0.00     0.214 C 
ATOM     27  O25 <0> d          -2.643  -2.250  -5.924  0.00  0.00    -0.644 OA
ATOM     28  O26 <0> d          -4.413  -2.961  -4.998  0.00  0.00    -0.644 OA
ENDBRANCH  10  26
TORSDOF 4
