REMARK  3 active torsions:
REMARK  status: ('A' for Active; 'I' for Inactive)
REMARK    1  A    between atoms: N2_2  and  C5_5 
REMARK    2  A    between atoms: C5_5  and  C6_6 
REMARK    3  A    between atoms: C6_6  and  C7_7 
ROOT
ATOM      1  C7  ZIN AC000      -3.492  -0.632  -1.275  0.00  0.00    -0.012 C 
ATOM      2  C8  ZIN AC000      -4.517   0.209  -1.462  0.00  0.00    -0.016 C 
ATOM      3  C9  ZIN AC000      -5.903  -0.314  -1.444  0.00  0.00    -0.017 A 
ATOM      4  C10 ZIN AC000      -6.203  -1.252  -0.445  0.00  0.00     0.013 A 
ATOM      5  C11 ZIN AC000      -7.463  -1.798  -0.348  0.00  0.00     0.001 A 
ATOM      6  C12 ZIN AC000      -8.441  -1.413  -1.248  0.00  0.00     0.001 A 
ATOM      7  C13 ZIN AC000      -8.151  -0.492  -2.229  0.00  0.00     0.010 A 
ATOM      8  C14 ZIN AC000      -6.880   0.072  -2.343  0.00  0.00    -0.023 A 
ATOM      9  C15 ZIN AC000      -6.721   1.067  -3.463  0.00  0.00     0.215 C 
ATOM     10  O16 ZIN AC000      -5.395   1.438  -3.742  0.00  0.00    -0.346 OA
ATOM     11  C17 ZIN AC000      -4.694   2.198  -2.877  0.00  0.00     0.080 A 
ATOM     12  C18 ZIN AC000      -4.416   3.528  -3.161  0.00  0.00     0.037 A 
ATOM     13  C19 ZIN AC000      -3.716   4.290  -2.244  0.00  0.00     0.003 A 
ATOM     14  C20 ZIN AC000      -3.291   3.742  -1.047  0.00  0.00     0.001 A 
ATOM     15  C21 ZIN AC000      -3.555   2.415  -0.759  0.00  0.00     0.015 A 
ATOM     16  C22 ZIN AC000      -4.250   1.649  -1.679  0.00  0.00     0.008 A 
ENDROOT
BRANCH   1  17
ATOM     17  C6  ZIN AC000      -2.078  -0.110  -1.286  0.00  0.00     0.055 C 
BRANCH  17  18
ATOM     18  C5  ZIN AC000      -1.376  -0.512   0.012  0.00  0.00     0.237 C 
BRANCH  18  19
ATOM     19  N2  ZIN AC000       0.002  -0.004   0.002  0.00  0.00    -0.079 N 
ATOM     20  C1  ZIN AC000      -0.018   1.465   0.010  0.00  0.00     0.269 C 
ATOM     21  H3  ZIN AC000       0.474  -0.330  -0.828  0.00  0.00     0.278 HD
ATOM     22  C4  ZIN AC000       0.713  -0.491   1.192  0.00  0.00     0.269 C 
ENDBRANCH  18  19
ENDBRANCH  17  18
ENDBRANCH   1  17
TORSDOF 3
