REMARK  4 active torsions:
REMARK  status: ('A' for Active; 'I' for Inactive)
REMARK    1  A    between atoms: C2_2  and  C4_4 
REMARK    2  A    between atoms: C4_4  and  C5_5 
REMARK    3  A    between atoms: C5_5  and  N7_6 
REMARK    4  A    between atoms: C5_5  and  C11_10 
ROOT
ATOM      1  C5  ZIN AC000      -1.416  -2.058  -0.121  0.00  0.00     0.283 C 
ENDROOT
BRANCH   1   2
ATOM      2  C4  ZIN AC000      -1.433  -0.534   0.013  0.00  0.00     0.048 C 
BRANCH   2   3
ATOM      3  C2  ZIN AC000       0.002  -0.004   0.002  0.00  0.00    -0.020 C 
ATOM      4  C1  ZIN AC000      -0.019   1.526   0.010  0.00  0.00     0.009 C 
ATOM      5  C3  ZIN AC000       0.742  -0.511   1.242  0.00  0.00     0.009 C 
ENDBRANCH   2   3
ENDBRANCH   1   2
BRANCH   1   6
ATOM      6  N7  ZIN AC000      -0.875  -2.427  -1.436  0.00  0.00    -0.065 N 
ATOM      7  H8  ZIN AC000      -1.455  -2.033  -2.161  0.00  0.00     0.275 HD
ATOM      8  H9  ZIN AC000       0.065  -2.071  -1.526  0.00  0.00     0.275 HD
ATOM      9  H10 ZIN AC000      -0.863  -3.432  -1.524  0.00  0.00     0.275 HD
ENDBRANCH   1   6
BRANCH   1  10
ATOM     10  C11 ZIN AC000      -2.819  -2.590   0.013  0.00  0.00     0.204 C 
ATOM     11  O12 ZIN AC000      -3.389  -3.057  -0.959  0.00  0.00    -0.646 OA
ATOM     12  O13 ZIN AC000      -3.385  -2.554   1.092  0.00  0.00    -0.646 OA
ENDBRANCH   1  10
TORSDOF 4
