REMARK  7 active torsions:
REMARK  status: ('A' for Active; 'I' for Inactive)
REMARK    1  A    between atoms: C2_2  and  O4_3 
REMARK    2  A    between atoms: C2_2  and  C23_22 
REMARK    3  A    between atoms: O4_3  and  C5_4 
REMARK    4  A    between atoms: C5_4  and  C6_5 
REMARK    5  A    between atoms: C6_5  and  C7_6 
REMARK    6  A    between atoms: C25_24  and  C26_25 
REMARK    7  A    between atoms: C31_30  and  C32_31 
ROOT
ATOM      1  C6  ZIN AC000       2.732  -1.158   2.264  0.00  0.00     0.205 C 
ATOM      2  C13 ZIN AC000       4.252  -1.228   2.096  0.00  0.00     0.051 C 
ATOM      3  C14 ZIN AC000       4.790   0.172   1.786  0.00  0.00     0.036 C 
ATOM      4  C15 ZIN AC000       4.378   1.127   2.904  0.00  0.00     0.059 C 
ATOM      5  C16 ZIN AC000       5.048   0.703   4.226  0.00  0.00     0.042 C 
ATOM      6  C17 ZIN AC000       5.330   2.072   4.887  0.00  0.00     0.105 C 
ATOM      7  C18 ZIN AC000       5.400   3.039   3.725  0.00  0.00     0.218 C 
ATOM      8  O19 ZIN AC000       5.874   4.154   3.777  0.00  0.00    -0.274 OA
ATOM      9  N20 ZIN AC000       4.861   2.481   2.626  0.00  0.00    -0.350 N 
ATOM     10  C21 ZIN AC000       2.860   1.124   3.070  0.00  0.00     0.302 C 
ATOM     11  N22 ZIN AC000       2.400  -0.241   3.362  0.00  0.00     0.102 N 
ATOM     12  H55 ZIN AC000       4.800   2.918   1.763  0.00  0.00     0.163 HD
ATOM     13  H58 ZIN AC000       1.411  -0.255   3.558  0.00  0.00     0.317 HD
ENDROOT
BRANCH   1  14
ATOM     14  C5  ZIN AC000       2.099  -0.651   0.967  0.00  0.00     0.215 C 
BRANCH  14  15
ATOM     15  O4  ZIN AC000       0.693  -0.477   1.160  0.00  0.00    -0.379 OA
BRANCH  15  16
ATOM     16  C2  ZIN AC000       0.002  -0.004   0.002  0.00  0.00     0.150 C 
ATOM     17  C1  ZIN AC000      -0.019   1.526   0.010  0.00  0.00     0.045 C 
BRANCH  16  18
ATOM     18  C23 ZIN AC000      -1.412  -0.526   0.013  0.00  0.00    -0.028 A 
ATOM     19  C36 ZIN AC000      -2.000  -0.954  -1.163  0.00  0.00     0.025 A 
ATOM     20  C31 ZIN AC000      -3.295  -1.436  -1.153  0.00  0.00     0.049 A 
ATOM     21  C30 ZIN AC000      -4.006  -1.482   0.032  0.00  0.00     0.032 A 
ATOM     22  C25 ZIN AC000      -3.420  -1.049   1.207  0.00  0.00     0.049 A 
ATOM     23  C24 ZIN AC000      -2.123  -0.571   1.197  0.00  0.00     0.025 A 
BRANCH  20  24
ATOM     24  C32 ZIN AC000      -3.934  -1.908  -2.433  0.00  0.00     0.417 C 
ATOM     25  F33 ZIN AC000      -5.237  -2.343  -2.171  0.00  0.00    -0.166 F 
ATOM     26  F34 ZIN AC000      -3.969  -0.854  -3.353  0.00  0.00    -0.166 F 
ATOM     27  F35 ZIN AC000      -3.187  -2.965  -2.965  0.00  0.00    -0.166 F 
ENDBRANCH  20  24
BRANCH  22  28
ATOM     28  C26 ZIN AC000      -4.195  -1.099   2.499  0.00  0.00     0.417 C 
ATOM     29  F27 ZIN AC000      -4.886   0.104   2.674  0.00  0.00    -0.166 F 
ATOM     30  F28 ZIN AC000      -5.107  -2.159   2.454  0.00  0.00    -0.166 F 
ATOM     31  F29 ZIN AC000      -3.311  -1.289   3.566  0.00  0.00    -0.166 F 
ENDBRANCH  22  28
ENDBRANCH  16  18
ENDBRANCH  15  16
ENDBRANCH  14  15
ENDBRANCH   1  14
BRANCH   1  32
ATOM     32  C7  ZIN AC000       2.199  -2.532   2.580  0.00  0.00    -0.018 A 
ATOM     33  C12 ZIN AC000       1.061  -2.671   3.353  0.00  0.00     0.010 A 
ATOM     34  C11 ZIN AC000       0.570  -3.931   3.638  0.00  0.00     0.001 A 
ATOM     35  C10 ZIN AC000       1.221  -5.052   3.159  0.00  0.00     0.000 A 
ATOM     36  C9  ZIN AC000       2.361  -4.913   2.390  0.00  0.00     0.001 A 
ATOM     37  C8  ZIN AC000       2.850  -3.653   2.101  0.00  0.00     0.010 A 
ENDBRANCH   1  32
TORSDOF 7
