REMARK  5 active torsions:
REMARK  status: ('A' for Active; 'I' for Inactive)
REMARK    1  A    between atoms: N1_1  and  C5_5 
REMARK    2  A    between atoms: C5_5  and  C6_6 
REMARK    3  A    between atoms: C6_6  and  C7_7 
REMARK    4  A    between atoms: C10_10  and  O11_11 
REMARK    5  A    between atoms: C12_12  and  O13_13 
ROOT
ATOM      1  C7  <0> d          -0.665   1.458   3.696  0.00  0.00    -0.054 A 
ATOM      2  C8  <0> d          -0.313   2.670   4.258  0.00  0.00     0.010 A 
ATOM      3  C9  <0> d          -0.957   3.120   5.396  0.00  0.00     0.040 A 
ATOM      4  C10 <0> d          -1.957   2.356   5.974  0.00  0.00     0.098 A 
ATOM      5  C12 <0> d          -2.312   1.135   5.407  0.00  0.00     0.099 A 
ATOM      6  C14 <0> d          -1.666   0.692   4.264  0.00  0.00     0.046 A 
ENDROOT
BRANCH   1   7
ATOM      7  C6  <0> d           0.041   0.972   2.456  0.00  0.00     0.066 C 
BRANCH   7   8
ATOM      8  C5  <0> d          -0.699   1.479   1.216  0.00  0.00     0.234 C 
BRANCH   8   9
ATOM      9  N1  <0> d          -0.012   1.005   0.008  0.00  0.00    -0.079 N 
ATOM     10  H2  <0> d           0.002  -0.004   0.002  0.00  0.00     0.274 HD
ATOM     11  H3  <0> d           0.935   1.354   0.000  0.00  0.00     0.274 HD
ATOM     12  H4  <0> d          -0.500   1.339  -0.810  0.00  0.00     0.274 HD
ENDBRANCH   8   9
ENDBRANCH   7   8
ENDBRANCH   1   7
BRANCH   5  13
ATOM     13  O13 <0> d          -3.293   0.381   5.971  0.00  0.00    -0.358 OA
ATOM     14  H22 <0> d          -4.179   0.571   5.632  0.00  0.00     0.217 HD
ENDBRANCH   5  13
BRANCH   4  15
ATOM     15  O11 <0> d          -2.592   2.797   7.093  0.00  0.00    -0.358 OA
ATOM     16  H21 <0> d          -3.377   3.333   6.915  0.00  0.00     0.217 HD
ENDBRANCH   4  15
TORSDOF 5
