REMARK  3 active torsions:
REMARK  status: ('A' for Active; 'I' for Inactive)
REMARK    1  A    between atoms: C2_2  and  O3_3 
REMARK    2  A    between atoms: O3_3  and  C4_4 
REMARK    3  A    between atoms: C4_4  and  C6_6 
ROOT
ATOM      1  C6  ZIN AC000      -2.871  -2.426   0.016  0.00  0.00     0.157 A 
ATOM      2  C7  ZIN AC000      -3.179  -3.752   0.018  0.00  0.00     0.070 A 
ATOM      3  C8  ZIN AC000      -2.217  -4.911  -0.045  0.00  0.00     0.185 C 
ATOM      4  N9  ZIN AC000      -2.520  -5.677  -1.258  0.00  0.00    -0.347 N 
ATOM      5  C10 ZIN AC000      -1.489  -5.818  -2.290  0.00  0.00     0.153 C 
ATOM      6  C11 ZIN AC000      -3.709  -6.248  -1.446  0.00  0.00     0.256 C 
ATOM      7  O12 ZIN AC000      -3.849  -6.883  -2.474  0.00  0.00    -0.267 OA
ATOM      8  C13 ZIN AC000      -4.866  -6.195  -0.549  0.00  0.00     0.062 A 
ATOM      9  C14 ZIN AC000      -5.607  -7.374  -0.366  0.00  0.00     0.061 A 
ATOM     10  C15 ZIN AC000      -6.722  -7.381   0.443  0.00  0.00     0.117 A 
ATOM     11  F16 ZIN AC000      -7.424  -8.523   0.613  0.00  0.00    -0.206 F 
ATOM     12  C17 ZIN AC000      -7.126  -6.219   1.083  0.00  0.00     0.044 A 
ATOM     13  C18 ZIN AC000      -6.402  -5.056   0.922  0.00  0.00     0.034 A 
ATOM     14  C19 ZIN AC000      -5.264  -5.037   0.121  0.00  0.00     0.056 A 
ATOM     15  N20 ZIN AC000      -4.530  -3.850   0.057  0.00  0.00    -0.305 N 
ATOM     16  C21 ZIN AC000      -5.033  -2.584   0.041  0.00  0.00     0.216 A 
ATOM     17  N22 ZIN AC000      -4.043  -1.738   0.032  0.00  0.00    -0.235 NA
ENDROOT
BRANCH   1  18
ATOM     18  C4  ZIN AC000      -1.519  -1.845   0.007  0.00  0.00     0.314 C 
ATOM     19  O5  ZIN AC000      -0.545  -2.572  -0.007  0.00  0.00    -0.257 OA
BRANCH  18  20
ATOM     20  O3  ZIN AC000      -1.360  -0.507   0.012  0.00  0.00    -0.317 OA
BRANCH  20  21
ATOM     21  C2  ZIN AC000       0.002  -0.004   0.002  0.00  0.00     0.175 C 
ATOM     22  C1  ZIN AC000      -0.019   1.526   0.010  0.00  0.00     0.034 C 
ENDBRANCH  20  21
ENDBRANCH  18  20
ENDBRANCH   1  18
TORSDOF 3
