REMARK  5 active torsions:
REMARK  status: ('A' for Active; 'I' for Inactive)
REMARK    1  A    between atoms: C2_2  and  C4_4 
REMARK    2  A    between atoms: C4_4  and  C5_5 
REMARK    3  A    between atoms: C5_5  and  C6_6 
REMARK    4  A    between atoms: C6_6  and  C7_7 
REMARK    5  A    between atoms: C7_7  and  N8_8 
ROOT
ATOM      1  N8  ZIN AC000       0.042  -5.245  -3.366  0.00  0.00    -0.264 N 
ATOM      2  C9  ZIN AC000      -1.134  -5.585  -3.935  0.00  0.00     0.282 A 
ATOM      3  O10 ZIN AC000      -2.186  -5.292  -3.397  0.00  0.00    -0.265 OA
ATOM      4  C11 ZIN AC000      -1.129  -6.284  -5.162  0.00  0.00     0.151 A 
ATOM      5  C12 ZIN AC000       0.086  -6.605  -5.753  0.00  0.00     0.167 A 
ATOM      6  N13 ZIN AC000      -0.185  -7.256  -6.888  0.00  0.00    -0.223 NA
ATOM      7  C14 ZIN AC000      -1.480  -7.360  -7.040  0.00  0.00     0.212 A 
ATOM      8  N15 ZIN AC000      -2.109  -6.776  -6.001  0.00  0.00    -0.338 N 
ATOM      9  C16 ZIN AC000      -3.557  -6.682  -5.799  0.00  0.00     0.157 C 
ATOM     10  N17 ZIN AC000       1.259  -6.228  -5.119  0.00  0.00    -0.286 N 
ATOM     11  C18 ZIN AC000       2.554  -6.553  -5.722  0.00  0.00     0.163 C 
ATOM     12  C19 ZIN AC000       1.210  -5.557  -3.953  0.00  0.00     0.333 A 
ATOM     13  O20 ZIN AC000       2.250  -5.234  -3.411  0.00  0.00    -0.246 OA
ENDROOT
BRANCH   1  14
ATOM     14  C7  ZIN AC000       0.044  -4.519  -2.094  0.00  0.00     0.137 C 
BRANCH  14  15
ATOM     15  C6  ZIN AC000       0.021  -3.014  -2.365  0.00  0.00     0.021 C 
BRANCH  15  16
ATOM     16  C5  ZIN AC000       0.023  -2.256  -1.036  0.00  0.00     0.009 C 
BRANCH  16  17
ATOM     17  C4  ZIN AC000      -0.000  -0.750  -1.307  0.00  0.00     0.078 C 
BRANCH  17  18
ATOM     18  C2  ZIN AC000       0.002  -0.004   0.002  0.00  0.00     0.123 C 
ATOM     19  C1  ZIN AC000      -0.018   1.503   0.010  0.00  0.00     0.091 C 
ATOM     20  O3  ZIN AC000       0.020  -0.613   1.044  0.00  0.00    -0.298 OA
ENDBRANCH  17  18
ENDBRANCH  16  17
ENDBRANCH  15  16
ENDBRANCH  14  15
ENDBRANCH   1  14
TORSDOF 5
