REMARK  6 active torsions:
REMARK  status: ('A' for Active; 'I' for Inactive)
REMARK    1  A    between atoms: N2_2  and  C4_4 
REMARK    2  A    between atoms: C4_4  and  C5_5 
REMARK    3  A    between atoms: C5_5  and  C7_6 
REMARK    4  A    between atoms: C5_5  and  C14_13 
REMARK    5  A    between atoms: C10_9  and  O11_10 
REMARK    6  A    between atoms: C14_13  and  O15_14 
ROOT
ATOM      1  C5  ZIN AC000      -1.971  -0.185  -1.437  0.00  0.00     0.081 C 
ENDROOT
BRANCH   1   2
ATOM      2  C4  ZIN AC000      -1.525  -0.879  -0.148  0.00  0.00     0.283 C 
BRANCH   2   3
ATOM      3  N2  ZIN AC000      -0.185  -0.407   0.223  0.00  0.00     0.080 N 
ATOM      4  C1  ZIN AC000      -0.208   1.017   0.583  0.00  0.00     0.309 C 
ATOM      5  C3  ZIN AC000       0.375  -1.216   1.314  0.00  0.00     0.309 C 
ENDBRANCH   2   3
ENDBRANCH   1   2
BRANCH   1   6
ATOM      6  C7  ZIN AC000      -3.408  -0.537  -1.726  0.00  0.00    -0.049 A 
ATOM      7  C13 ZIN AC000      -4.322   0.464  -2.000  0.00  0.00     0.010 A 
ATOM      8  C12 ZIN AC000      -5.638   0.144  -2.269  0.00  0.00     0.037 A 
ATOM      9  C10 ZIN AC000      -6.045  -1.182  -2.255  0.00  0.00     0.065 A 
ATOM     10  C9  ZIN AC000      -5.128  -2.184  -1.975  0.00  0.00     0.037 A 
ATOM     11  C8  ZIN AC000      -3.811  -1.859  -1.711  0.00  0.00     0.010 A 
BRANCH   9  12
ATOM     12  O11 ZIN AC000      -7.341  -1.499  -2.515  0.00  0.00    -0.361 OA
ATOM     13  H31 ZIN AC000      -7.905  -1.523  -1.730  0.00  0.00     0.217 HD
ENDBRANCH   9  12
ENDBRANCH   1   6
BRANCH   1  14
ATOM     14  C14 ZIN AC000      -1.089  -0.650  -2.598  0.00  0.00     0.067 C 
ATOM     15  C20 ZIN AC000       0.342  -0.154  -2.382  0.00  0.00     0.038 C 
ATOM     16  C19 ZIN AC000       1.224  -0.620  -3.542  0.00  0.00     0.003 C 
ATOM     17  C18 ZIN AC000       0.680  -0.052  -4.855  0.00  0.00     0.000 C 
ATOM     18  C17 ZIN AC000      -0.751  -0.548  -5.071  0.00  0.00     0.003 C 
ATOM     19  C16 ZIN AC000      -1.633  -0.083  -3.911  0.00  0.00     0.038 C 
BRANCH  14  20
ATOM     20  O15 ZIN AC000      -1.095  -2.078  -2.658  0.00  0.00    -0.389 OA
ATOM     21  H34 ZIN AC000      -0.555  -2.444  -3.372  0.00  0.00     0.210 HD
ENDBRANCH  14  20
ENDBRANCH   1  14
TORSDOF 6
