REMARK  4 active torsions:
REMARK  status: ('A' for Active; 'I' for Inactive)
REMARK    1  A    between atoms: O2_2  and  C3_3 
REMARK    2  A    between atoms: C3_3  and  C5_5 
REMARK    3  A    between atoms: C5_5  and  C7_6 
REMARK    4  A    between atoms: C5_5  and  C13_12 
ROOT
ATOM      1  C5  <0> d          -1.244  -2.135   0.003  0.00  0.00     0.149 C 
ENDROOT
BRANCH   1   2
ATOM      2  C3  <0> d          -1.185  -0.630   0.010  0.00  0.00     0.269 C 
ATOM      3  O4  <0> d          -2.208   0.015   0.023  0.00  0.00    -0.264 OA
BRANCH   2   4
ATOM      4  O2  <0> d           0.002  -0.004   0.002  0.00  0.00    -0.326 OA
ATOM      5  C1  <0> d          -0.018   1.448   0.010  0.00  0.00     0.213 C 
ENDBRANCH   2   4
ENDBRANCH   1   2
BRANCH   1   6
ATOM      6  C7  <0> d          -2.683  -2.582   0.014  0.00  0.00    -0.043 A 
ATOM      7  C12 <0> d          -3.176  -3.353  -1.022  0.00  0.00     0.008 A 
ATOM      8  C11 <0> d          -4.495  -3.767  -1.010  0.00  0.00     0.001 A 
ATOM      9  C10 <0> d          -5.324  -3.402   0.034  0.00  0.00     0.000 A 
ATOM     10  C9  <0> d          -4.832  -2.627   1.068  0.00  0.00     0.001 A 
ATOM     11  C8  <0> d          -3.512  -2.217   1.058  0.00  0.00     0.008 A 
ENDBRANCH   1   6
BRANCH   1  12
ATOM     12  C13 <0> d          -0.531  -2.680   1.242  0.00  0.00     0.203 C 
ATOM     13  N19 <0> d           0.870  -2.243   1.231  0.00  0.00    -0.070 N 
ATOM     14  C18 <0> d           1.542  -2.696   2.455  0.00  0.00     0.232 C 
ATOM     15  H20 <0> d           1.338  -2.634   0.427  0.00  0.00     0.277 HD
ATOM     16  H21 <0> d           0.905  -1.236   1.182  0.00  0.00     0.277 HD
ATOM     17  C17 <0> d           1.561  -4.225   2.494  0.00  0.00     0.027 C 
ATOM     18  C16 <0> d           0.122  -4.749   2.477  0.00  0.00     0.004 C 
ATOM     19  C15 <0> d          -0.592  -4.209   1.235  0.00  0.00     0.034 C 
ENDBRANCH   1  12
TORSDOF 4
