REMARK  4 active torsions:
REMARK  status: ('A' for Active; 'I' for Inactive)
REMARK    1  A    between atoms: C2_2  and  C3_3 
REMARK    2  A    between atoms: C3_3  and  C4_4 
REMARK    3  A    between atoms: C4_4  and  C7_6 
REMARK    4  A    between atoms: C7_6  and  C8_7 
ROOT
ATOM      1  C7  ZIN AC000       1.343  -2.522  -2.581  0.00  0.00     0.127 A 
ATOM      2  C10 ZIN AC000       0.396  -2.147  -3.705  0.00  0.00     0.266 A 
ATOM      3  O11 ZIN AC000      -0.754  -2.530  -3.713  0.00  0.00    -0.270 OA
ATOM      4  N12 ZIN AC000       0.882  -1.369  -4.697  0.00  0.00    -0.157 NA
ATOM      5  C13 ZIN AC000       2.148  -0.938  -4.702  0.00  0.00     0.351 A 
ATOM      6  O14 ZIN AC000       2.502  -0.242  -5.633  0.00  0.00    -0.244 OA
ATOM      7  N15 ZIN AC000       3.054  -1.216  -3.757  0.00  0.00    -0.276 N 
ATOM      8  C16 ZIN AC000       2.756  -1.980  -2.685  0.00  0.00     0.244 A 
ATOM      9  O17 ZIN AC000       3.587  -2.224  -1.837  0.00  0.00    -0.272 OA
ATOM     10  H33 ZIN AC000       3.951  -0.858  -3.846  0.00  0.00     0.173 HD
ENDROOT
BRANCH   1  11
ATOM     11  C4  ZIN AC000       0.739  -2.027  -1.265  0.00  0.00     0.009 C 
ATOM     12  C6  ZIN AC000       1.584  -2.532  -0.094  0.00  0.00     0.011 C 
BRANCH  11  13
ATOM     13  C3  ZIN AC000       0.718  -0.497  -1.257  0.00  0.00     0.005 C 
BRANCH  13  14
ATOM     14  C2  ZIN AC000       0.002  -0.004   0.002  0.00  0.00    -0.004 C 
ATOM     15  C1  ZIN AC000      -0.019   1.526   0.010  0.00  0.00     0.005 C 
ENDBRANCH  13  14
ENDBRANCH  11  13
ENDBRANCH   1  11
BRANCH   1  16
ATOM     16  C8  ZIN AC000       1.422  -4.049  -2.521  0.00  0.00     0.025 C 
ATOM     17  C9  ZIN AC000       2.023  -4.580  -3.823  0.00  0.00     0.007 C 
ENDBRANCH   1  16
TORSDOF 4
