REMARK  1 active torsions:
REMARK  status: ('A' for Active; 'I' for Inactive)
REMARK    1  A    between atoms: C23_20  and  O25_21 
ROOT
ATOM      1  C1  ZIN AC000       0.613   1.619   0.437  0.00  0.00     0.018 C 
ATOM      2  C2  ZIN AC000       0.705   0.092   0.444  0.00  0.00    -0.014 C 
ATOM      3  C3  ZIN AC000      -0.674  -0.507   0.249  0.00  0.00     0.012 C 
ATOM      4  C4  ZIN AC000      -1.587   0.097   1.327  0.00  0.00     0.007 C 
ATOM      5  C5  ZIN AC000      -1.054  -0.167   2.732  0.00  0.00     0.002 C 
ATOM      6  C7  ZIN AC000       0.395   0.316   2.892  0.00  0.00    -0.004 C 
ATOM      7  C9  ZIN AC000       0.898  -0.066   4.287  0.00  0.00     0.010 C 
ATOM      8  C10 ZIN AC000       0.092   0.698   5.339  0.00  0.00     0.035 C 
ATOM      9  C11 ZIN AC000      -1.384   0.419   5.121  0.00  0.00    -0.068 C 
ATOM     10  C12 ZIN AC000      -2.111   0.065   6.181  0.00  0.00     0.053 C 
ATOM     11  C13 ZIN AC000      -3.546  -0.200   6.030  0.00  0.00     0.149 C 
ATOM     12  O14 ZIN AC000      -4.159  -0.873   6.832  0.00  0.00    -0.293 OA
ATOM     13  C15 ZIN AC000      -4.223   0.412   4.820  0.00  0.00     0.084 C 
ATOM     14  C16 ZIN AC000      -3.374   0.064   3.598  0.00  0.00     0.022 C 
ATOM     15  C17 ZIN AC000      -1.936   0.565   3.751  0.00  0.00    -0.016 C 
ATOM     16  C18 ZIN AC000      -1.911   2.052   3.390  0.00  0.00     0.020 C 
ATOM     17  C19 ZIN AC000       1.225  -0.398   1.823  0.00  0.00     0.001 C 
ATOM     18  C21 ZIN AC000       2.707  -0.012   1.762  0.00  0.00     0.008 C 
ATOM     19  C22 ZIN AC000       3.107  -0.393   0.311  0.00  0.00     0.033 C 
ATOM     20  C23 ZIN AC000       1.792  -0.365  -0.523  0.00  0.00     0.126 C 
ENDROOT
BRANCH  20  21
ATOM     21  O25 ZIN AC000       1.918   0.547  -1.616  0.00  0.00    -0.395 OA
ATOM     22  H49 ZIN AC000       2.618   0.316  -2.242  0.00  0.00     0.210 HD
ENDBRANCH  20  21
TORSDOF 1
