REMARK  11 active torsions:
REMARK  status: ('A' for Active; 'I' for Inactive)
REMARK    1  A    between atoms: O2_2  and  C3_3 
REMARK    2  A    between atoms: C3_3  and  C5_5 
REMARK    3  A    between atoms: C11_11  and  C12_12 
REMARK    4  A    between atoms: C12_12  and  O14_14 
REMARK    5  A    between atoms: O14_14  and  C15_15 
REMARK    6  A    between atoms: C15_15  and  C16_16 
REMARK    7  A    between atoms: C16_16  and  N17_17 
REMARK    8  A    between atoms: N17_17  and  C19_19 
REMARK    9  A    between atoms: C19_19  and  C20_20 
REMARK   10  A    between atoms: C26_26  and  C28_27 
REMARK   11  A    between atoms: C32_31  and  N33_32 
ROOT
ATOM      1  C5  ZIN AC000       0.801  -2.021  -1.060  0.00  0.00     0.052 C 
ATOM      2  C6  ZIN AC000       1.172  -2.597  -2.217  0.00  0.00     0.018 C 
ATOM      3  C7  ZIN AC000       1.687  -1.738  -3.344  0.00  0.00     0.069 C 
ATOM      4  N8  ZIN AC000       1.088  -3.952  -2.384  0.00  0.00    -0.362 N 
ATOM      5  C9  ZIN AC000       0.309  -4.704  -1.548  0.00  0.00     0.018 C 
ATOM      6  C10 ZIN AC000      -0.098  -6.095  -1.960  0.00  0.00     0.069 C 
ATOM      7  C11 ZIN AC000      -0.099  -4.216  -0.363  0.00  0.00     0.052 C 
ATOM      8  C26 ZIN AC000       0.295  -2.839   0.094  0.00  0.00     0.101 C 
ATOM      9  H43 ZIN AC000       1.583  -4.382  -3.099  0.00  0.00     0.165 HD
ENDROOT
BRANCH   7  10
ATOM     10  C12 ZIN AC000      -0.909  -5.019   0.473  0.00  0.00     0.292 C 
ATOM     11  O13 ZIN AC000      -1.231  -6.137   0.117  0.00  0.00    -0.259 OA
BRANCH  10  12
ATOM     12  O14 ZIN AC000      -1.326  -4.544   1.665  0.00  0.00    -0.316 OA
BRANCH  12  13
ATOM     13  C15 ZIN AC000      -2.143  -5.408   2.458  0.00  0.00     0.209 C 
BRANCH  13  14
ATOM     14  C16 ZIN AC000      -2.514  -4.702   3.764  0.00  0.00     0.299 C 
BRANCH  14  15
ATOM     15  N17 ZIN AC000      -3.357  -3.536   3.468  0.00  0.00     0.090 N 
ATOM     16  C18 ZIN AC000      -4.652  -3.949   2.913  0.00  0.00     0.310 C 
BRANCH  15  17
ATOM     17  C19 ZIN AC000      -3.538  -2.700   4.662  0.00  0.00     0.310 C 
BRANCH  17  18
ATOM     18  C20 ZIN AC000      -4.192  -1.400   4.271  0.00  0.00    -0.030 A 
ATOM     19  C25 ZIN AC000      -5.570  -1.293   4.270  0.00  0.00     0.009 A 
ATOM     20  C24 ZIN AC000      -6.170  -0.099   3.916  0.00  0.00     0.001 A 
ATOM     21  C23 ZIN AC000      -5.392   0.985   3.554  0.00  0.00     0.000 A 
ATOM     22  C22 ZIN AC000      -4.014   0.876   3.550  0.00  0.00     0.001 A 
ATOM     23  C21 ZIN AC000      -3.414  -0.317   3.908  0.00  0.00     0.009 A 
ENDBRANCH  17  18
ENDBRANCH  15  17
ENDBRANCH  14  15
ENDBRANCH  13  14
ENDBRANCH  12  13
ENDBRANCH  10  12
ENDBRANCH   7  10
BRANCH   8  24
ATOM     24  C28 ZIN AC000       1.373  -2.953   1.142  0.00  0.00    -0.042 A 
ATOM     25  C36 ZIN AC000       1.159  -2.447   2.411  0.00  0.00     0.044 A 
ATOM     26  C32 ZIN AC000       2.146  -2.555   3.373  0.00  0.00     0.103 A 
ATOM     27  C31 ZIN AC000       3.349  -3.161   3.063  0.00  0.00     0.036 A 
ATOM     28  C30 ZIN AC000       3.565  -3.662   1.793  0.00  0.00     0.003 A 
ATOM     29  C29 ZIN AC000       2.576  -3.557   0.832  0.00  0.00     0.008 A 
BRANCH  26  30
ATOM     30  N33 ZIN AC000       1.915  -2.020   4.733  0.00  0.00    -0.116 N 
ATOM     31  O34 ZIN AC000       2.785  -2.113   5.580  0.00  0.00    -0.532 OA
ATOM     32  O35 ZIN AC000       0.855  -1.486   5.006  0.00  0.00    -0.532 OA
ENDBRANCH  26  30
ENDBRANCH   8  24
BRANCH   1  33
ATOM     33  C3  ZIN AC000       0.893  -0.617  -0.925  0.00  0.00     0.291 C 
ATOM     34  O4  ZIN AC000      -0.114   0.065  -0.951  0.00  0.00    -0.260 OA
BRANCH  33  35
ATOM     35  O2  ZIN AC000       2.100  -0.032  -0.768  0.00  0.00    -0.323 OA
ATOM     36  C1  ZIN AC000       2.119   1.391  -0.637  0.00  0.00     0.213 C 
ENDBRANCH  33  35
ENDBRANCH   1  33
TORSDOF 11
