REMARK  6 active torsions:
REMARK  status: ('A' for Active; 'I' for Inactive)
REMARK    1  A    between atoms: N2_2  and  C5_5 
REMARK    2  A    between atoms: C5_5  and  C6_6 
REMARK    3  A    between atoms: C6_6  and  C7_7 
REMARK    4  A    between atoms: C13_13  and  C14_14 
REMARK    5  A    between atoms: C14_14  and  S15_15 
REMARK    6  A    between atoms: S15_15  and  N18_18 
ROOT
ATOM      1  C7  ZIN AC000      -2.772  -2.558  -0.111  0.00  0.00    -0.029 A 
ATOM      2  C8  ZIN AC000      -3.448  -3.011   0.957  0.00  0.00     0.096 A 
ATOM      3  N9  ZIN AC000      -4.705  -3.401   0.582  0.00  0.00    -0.365 N 
ATOM      4  C10 ZIN AC000      -4.873  -3.204  -0.770  0.00  0.00     0.043 A 
ATOM      5  C11 ZIN AC000      -5.930  -3.426  -1.646  0.00  0.00     0.031 A 
ATOM      6  C12 ZIN AC000      -5.788  -3.119  -2.982  0.00  0.00     0.010 A 
ATOM      7  C13 ZIN AC000      -4.599  -2.590  -3.464  0.00  0.00    -0.042 A 
ATOM      8  C23 ZIN AC000      -3.547  -2.364  -2.621  0.00  0.00     0.022 A 
ATOM      9  C24 ZIN AC000      -3.672  -2.662  -1.263  0.00  0.00    -0.001 A 
ATOM     10  H36 ZIN AC000      -5.378  -3.762   1.180  0.00  0.00     0.165 HD
ENDROOT
BRANCH   7  11
ATOM     11  C14 ZIN AC000      -4.466  -2.261  -4.929  0.00  0.00     0.201 C 
BRANCH  11  12
ATOM     12  S15 ZIN AC000      -4.993  -0.549  -5.215  0.00  0.00     0.232 S 
ATOM     13  O16 ZIN AC000      -6.393  -0.417  -5.007  0.00  0.00    -0.205 OA
ATOM     14  O17 ZIN AC000      -4.076   0.361  -4.623  0.00  0.00    -0.205 OA
BRANCH  12  15
ATOM     15  N18 ZIN AC000      -4.799  -0.323  -6.843  0.00  0.00    -0.311 N 
ATOM     16  C22 ZIN AC000      -5.820  -0.583  -7.875  0.00  0.00     0.135 C 
ATOM     17  C21 ZIN AC000      -5.419   0.328  -9.065  0.00  0.00     0.022 C 
ATOM     18  C20 ZIN AC000      -3.871   0.237  -9.015  0.00  0.00     0.022 C 
ATOM     19  C19 ZIN AC000      -3.578   0.163  -7.501  0.00  0.00     0.135 C 
ENDBRANCH  12  15
ENDBRANCH  11  12
ENDBRANCH   7  11
BRANCH   1  20
ATOM     20  C6  ZIN AC000      -1.358  -2.037  -0.122  0.00  0.00     0.068 C 
BRANCH  20  21
ATOM     21  C5  ZIN AC000      -1.376  -0.512   0.012  0.00  0.00     0.238 C 
BRANCH  21  22
ATOM     22  N2  ZIN AC000       0.002  -0.004   0.002  0.00  0.00    -0.079 N 
ATOM     23  C1  ZIN AC000      -0.018   1.465   0.010  0.00  0.00     0.269 C 
ATOM     24  H3  ZIN AC000       0.474  -0.330  -0.828  0.00  0.00     0.278 HD
ATOM     25  C4  ZIN AC000       0.713  -0.491   1.192  0.00  0.00     0.269 C 
ENDBRANCH  21  22
ENDBRANCH  20  21
ENDBRANCH   1  20
TORSDOF 6
