REMARK  11 active torsions:
REMARK  status: ('A' for Active; 'I' for Inactive)
REMARK    1  A    between atoms: N2_2  and  C4_4 
REMARK    2  A    between atoms: N2_2  and  C18_18 
REMARK    3  A    between atoms: C4_4  and  C5_5 
REMARK    4  A    between atoms: C5_5  and  O6_6 
REMARK    5  A    between atoms: O6_6  and  C7_7 
REMARK    6  A    between atoms: C10_10  and  N11_11 
REMARK    7  A    between atoms: N11_11  and  S12_12 
REMARK    8  A    between atoms: C18_18  and  C19_19 
REMARK    9  A    between atoms: C19_19  and  C20_20 
REMARK   10  A    between atoms: C23_23  and  N24_24 
REMARK   11  A    between atoms: N24_24  and  S25_25 
ROOT
ATOM      1  C1  ZIN AC000      -0.766   1.455  -0.491  0.00  0.00     0.269 C 
ATOM      2  N2  ZIN AC000      -0.473   0.021  -0.619  0.00  0.00    -0.073 N 
ATOM      3  H3  ZIN AC000      -1.338  -0.494  -0.693  0.00  0.00     0.279 HD
ENDROOT
BRANCH   2   4
ATOM      4  C4  ZIN AC000       0.337  -0.208  -1.823  0.00  0.00     0.261 C 
BRANCH   4   5
ATOM      5  C5  ZIN AC000       0.511  -1.712  -2.042  0.00  0.00     0.203 C 
BRANCH   5   6
ATOM      6  O6  ZIN AC000      -0.760  -2.302  -2.324  0.00  0.00    -0.349 OA
BRANCH   6   7
ATOM      7  C7  ZIN AC000      -0.782  -3.643  -2.546  0.00  0.00     0.069 A 
ATOM      8  C17 ZIN AC000      -1.983  -4.280  -2.826  0.00  0.00     0.039 A 
ATOM      9  C16 ZIN AC000      -2.006  -5.641  -3.056  0.00  0.00     0.033 A 
ATOM     10  C10 ZIN AC000      -0.828  -6.375  -2.998  0.00  0.00     0.042 A 
ATOM     11  C9  ZIN AC000       0.373  -5.738  -2.713  0.00  0.00     0.033 A 
ATOM     12  C8  ZIN AC000       0.394  -4.375  -2.488  0.00  0.00     0.039 A 
BRANCH  10  13
ATOM     13  N11 ZIN AC000      -0.851  -7.756  -3.225  0.00  0.00    -0.285 N 
ATOM     14  H40 ZIN AC000      -0.194  -8.161  -3.812  0.00  0.00     0.178 HD
BRANCH  13  15
ATOM     15  S12 ZIN AC000      -2.000  -8.696  -2.492  0.00  0.00     0.227 S 
ATOM     16  C13 ZIN AC000      -1.696  -8.481  -0.717  0.00  0.00     0.186 C 
ATOM     17  O14 ZIN AC000      -3.233  -8.096  -2.863  0.00  0.00    -0.206 OA
ATOM     18  O15 ZIN AC000      -1.679 -10.020  -2.896  0.00  0.00    -0.206 OA
ENDBRANCH  13  15
ENDBRANCH  10  13
ENDBRANCH   6   7
ENDBRANCH   5   6
ENDBRANCH   4   5
ENDBRANCH   2   4
BRANCH   2  19
ATOM     19  C18 ZIN AC000       0.268  -0.436   0.565  0.00  0.00     0.239 C 
BRANCH  19  20
ATOM     20  C19 ZIN AC000      -0.623  -0.314   1.802  0.00  0.00     0.066 C 
BRANCH  20  21
ATOM     21  C20 ZIN AC000       0.137  -0.782   3.017  0.00  0.00    -0.057 A 
ATOM     22  C30 ZIN AC000       0.886   0.119   3.751  0.00  0.00     0.009 A 
ATOM     23  C29 ZIN AC000       1.579  -0.306   4.867  0.00  0.00     0.030 A 
ATOM     24  C23 ZIN AC000       1.532  -1.642   5.246  0.00  0.00     0.042 A 
ATOM     25  C22 ZIN AC000       0.783  -2.545   4.502  0.00  0.00     0.030 A 
ATOM     26  C21 ZIN AC000       0.088  -2.112   3.390  0.00  0.00     0.009 A 
BRANCH  24  27
ATOM     27  N24 ZIN AC000       2.237  -2.076   6.371  0.00  0.00    -0.285 N 
ATOM     28  H52 ZIN AC000       1.807  -2.654   7.019  0.00  0.00     0.178 HD
BRANCH  27  29
ATOM     29  S25 ZIN AC000       3.808  -1.603   6.597  0.00  0.00     0.227 S 
ATOM     30  C26 ZIN AC000       4.692  -2.267   5.159  0.00  0.00     0.186 C 
ATOM     31  O27 ZIN AC000       3.758  -0.184   6.540  0.00  0.00    -0.206 OA
ATOM     32  O28 ZIN AC000       4.209  -2.275   7.783  0.00  0.00    -0.206 OA
ENDBRANCH  27  29
ENDBRANCH  24  27
ENDBRANCH  20  21
ENDBRANCH  19  20
ENDBRANCH   2  19
TORSDOF 11
