REMARK  4 active torsions:
REMARK  status: ('A' for Active; 'I' for Inactive)
REMARK    1  A    between atoms: C5_5  and  N6_6 
REMARK    2  A    between atoms: N6_6  and  S7_7 
REMARK    3  A    between atoms: S7_7  and  C10_10 
REMARK    4  A    between atoms: C13_13  and  N14_14 
ROOT
ATOM      1  S7  <0> d           0.068  -4.740   0.452  0.00  0.00     0.264 S 
ATOM      2  O8  <0> d           0.120  -5.769   1.431  0.00  0.00    -0.200 OA
ATOM      3  O9  <0> d          -0.960  -4.650  -0.526  0.00  0.00    -0.200 OA
ENDROOT
BRANCH   1   4
ATOM      4  N6  <0> d           0.052  -3.307   1.280  0.00  0.00    -0.258 N 
ATOM      5  H22 <0> d           0.056  -3.307   2.251  0.00  0.00     0.181 HD
BRANCH   4   6
ATOM      6  C5  <0> d           0.033  -2.109   0.590  0.00  0.00     0.190 A 
ATOM      7  O4  <0> d           0.025  -1.948  -0.743  0.00  0.00    -0.194 OA
ATOM      8  N3  <0> d           0.008  -0.778  -1.047  0.00  0.00    -0.131 NA
ATOM      9  C2  <0> d           0.002  -0.004   0.002  0.00  0.00     0.068 A 
ATOM     10  C1  <0> d          -0.018   1.503   0.010  0.00  0.00     0.073 C 
ATOM     11  C17 <0> d           0.024  -0.852   1.126  0.00  0.00     0.018 A 
ATOM     12  C18 <0> d           0.028  -0.464   2.583  0.00  0.00     0.055 C 
ENDBRANCH   4   6
ENDBRANCH   1   4
BRANCH   1  13
ATOM     13  C10 <0> d           1.590  -4.816  -0.431  0.00  0.00     0.080 A 
ATOM     14  C16 <0> d           2.704  -5.382   0.161  0.00  0.00     0.027 A 
ATOM     15  C15 <0> d           3.898  -5.448  -0.531  0.00  0.00     0.030 A 
ATOM     16  C13 <0> d           3.981  -4.934  -1.819  0.00  0.00     0.025 A 
ATOM     17  C12 <0> d           2.862  -4.361  -2.409  0.00  0.00     0.030 A 
ATOM     18  C11 <0> d           1.670  -4.304  -1.714  0.00  0.00     0.027 A 
BRANCH  16  19
ATOM     19  N14 <0> d           5.189  -4.994  -2.519  0.00  0.00    -0.399 N 
ATOM     20  H25 <0> d           5.246  -4.635  -3.418  0.00  0.00     0.156 HD
ATOM     21  H26 <0> d           5.970  -5.394  -2.106  0.00  0.00     0.156 HD
ENDBRANCH  16  19
ENDBRANCH   1  13
TORSDOF 4
