REMARK  4 active torsions:
REMARK  status: ('A' for Active; 'I' for Inactive)
REMARK    1  A    between atoms: C2_2  and  C4_4 
REMARK    2  A    between atoms: C4_4  and  C5_5 
REMARK    3  A    between atoms: C5_5  and  C7_6 
REMARK    4  A    between atoms: C5_5  and  C13_12 
ROOT
ATOM      1  C13 <0> d          -0.190  -2.637   1.223  0.00  0.00     0.064 A 
ATOM      2  C14 <0> d          -0.187  -1.808   2.311  0.00  0.00     0.133 A 
ATOM      3  O15 <0> d          -0.898  -0.658   2.313  0.00  0.00    -0.190 OA
ATOM      4  C16 <0> d           0.613  -2.207   3.480  0.00  0.00     0.035 A 
ATOM      5  C17 <0> d           0.662  -1.409   4.625  0.00  0.00     0.017 A 
ATOM      6  C18 <0> d           1.420  -1.810   5.702  0.00  0.00     0.001 A 
ATOM      7  C19 <0> d           2.132  -2.999   5.653  0.00  0.00     0.003 A 
ATOM      8  C20 <0> d           2.093  -3.797   4.528  0.00  0.00     0.038 A 
ATOM      9  C21 <0> d           1.334  -3.410   3.431  0.00  0.00     0.092 A 
ATOM     10  O22 <0> d           1.284  -4.179   2.321  0.00  0.00    -0.274 OA
ATOM     11  C23 <0> d           0.552  -3.827   1.252  0.00  0.00     0.298 A 
ATOM     12  O24 <0> d           0.541  -4.556   0.276  0.00  0.00    -0.259 OA
ENDROOT
BRANCH   1  13
ATOM     13  C5  <0> d          -0.993  -2.276  -0.001  0.00  0.00     0.067 C 
BRANCH  13  14
ATOM     14  C4  <0> d          -1.285  -0.774   0.006  0.00  0.00     0.092 C 
BRANCH  14  15
ATOM     15  C2  <0> d           0.013  -0.009   0.026  0.00  0.00     0.124 C 
ATOM     16  C1  <0> d          -0.000   1.498   0.036  0.00  0.00     0.091 C 
ATOM     17  O3  <0> d           1.064  -0.604   0.034  0.00  0.00    -0.298 OA
ENDBRANCH  14  15
ENDBRANCH  13  14
BRANCH  13  18
ATOM     18  C7  <0> d          -2.291  -3.041   0.007  0.00  0.00    -0.049 A 
ATOM     19  C12 <0> d          -2.546  -3.978  -0.976  0.00  0.00     0.008 A 
ATOM     20  C11 <0> d          -3.736  -4.683  -0.967  0.00  0.00     0.001 A 
ATOM     21  C10 <0> d          -4.673  -4.443   0.020  0.00  0.00     0.000 A 
ATOM     22  C9  <0> d          -4.420  -3.502   1.000  0.00  0.00     0.001 A 
ATOM     23  C8  <0> d          -3.229  -2.800   0.993  0.00  0.00     0.008 A 
ENDBRANCH  13  18
ENDBRANCH   1  13
TORSDOF 4
