REMARK  8 active torsions:
REMARK  status: ('A' for Active; 'I' for Inactive)
REMARK    1  A    between atoms: C2_2  and  N4_4 
REMARK    2  A    between atoms: N7_7  and  C8_8 
REMARK    3  A    between atoms: C11_11  and  O12_12 
REMARK    4  A    between atoms: O12_12  and  C13_13 
REMARK    5  A    between atoms: C13_13  and  C14_14 
REMARK    6  A    between atoms: C18_17  and  C19_18 
REMARK    7  A    between atoms: C18_17  and  C25_24 
REMARK    8  A    between atoms: C19_18  and  N20_19 
ROOT
ATOM      1  C14 ZIN AC000     -10.828  -5.785   0.951  0.00  0.00     0.173 C 
ATOM      2  C16 ZIN AC000     -10.990  -7.317   1.105  0.00  0.00     0.206 C 
ATOM      3  O17 ZIN AC000     -12.157  -7.405   1.957  0.00  0.00    -0.347 OA
ATOM      4  C18 ZIN AC000     -12.039  -6.292   2.858  0.00  0.00     0.213 C 
ATOM      5  O33 ZIN AC000     -11.230  -5.279   2.240  0.00  0.00    -0.340 OA
ENDROOT
BRANCH   1   6
ATOM      6  C13 ZIN AC000      -9.371  -5.422   0.658  0.00  0.00     0.209 C 
BRANCH   6   7
ATOM      7  O12 ZIN AC000      -9.262  -4.011   0.460  0.00  0.00    -0.349 OA
BRANCH   7   8
ATOM      8  C11 ZIN AC000      -8.023  -3.519   0.188  0.00  0.00     0.069 A 
ATOM      9  C10 ZIN AC000      -7.846  -2.159  -0.014  0.00  0.00     0.038 A 
ATOM     10  C9  ZIN AC000      -6.589  -1.659  -0.290  0.00  0.00     0.026 A 
ATOM     11  C8  ZIN AC000      -5.501  -2.519  -0.365  0.00  0.00     0.010 A 
ATOM     12  C35 ZIN AC000      -5.680  -3.882  -0.168  0.00  0.00     0.026 A 
ATOM     13  C34 ZIN AC000      -6.938  -4.379   0.113  0.00  0.00     0.038 A 
BRANCH  11  14
ATOM     14  N7  ZIN AC000      -4.227  -2.013  -0.646  0.00  0.00    -0.280 NA
ATOM     15  C6  ZIN AC000      -4.265  -0.554  -0.817  0.00  0.00     0.126 C 
ATOM     16  C5  ZIN AC000      -2.844  -0.032  -1.042  0.00  0.00     0.287 C 
ATOM     17  N4  ZIN AC000      -2.267  -0.684  -2.227  0.00  0.00     0.094 N 
ATOM     18  C37 ZIN AC000      -2.229  -2.143  -2.055  0.00  0.00     0.287 C 
ATOM     19  C36 ZIN AC000      -3.650  -2.665  -1.830  0.00  0.00     0.126 C 
BRANCH  17  20
ATOM     20  C2  ZIN AC000      -0.930  -0.153  -2.521  0.00  0.00     0.215 C 
ATOM     21  C1  ZIN AC000      -1.010   1.365  -2.692  0.00  0.00     0.042 C 
ATOM     22  C3  ZIN AC000       0.017  -0.487  -1.365  0.00  0.00     0.042 C 
ENDBRANCH  17  20
ENDBRANCH  11  14
ENDBRANCH   7   8
ENDBRANCH   6   7
ENDBRANCH   1   6
BRANCH   4  23
ATOM     23  C19 ZIN AC000     -11.383  -6.753   4.162  0.00  0.00     0.226 C 
BRANCH  23  24
ATOM     24  N20 ZIN AC000     -11.200  -5.602   5.050  0.00  0.00    -0.257 N 
ATOM     25  N24 ZIN AC000     -10.540  -4.400   4.745  0.00  0.00    -0.165 NA
ATOM     26  C23 ZIN AC000     -10.609  -3.650   5.813  0.00  0.00     0.256 A 
ATOM     27  N22 ZIN AC000     -11.263  -4.313   6.766  0.00  0.00    -0.234 NA
ATOM     28  C21 ZIN AC000     -11.624  -5.489   6.320  0.00  0.00     0.230 A 
ENDBRANCH  23  24
ENDBRANCH   4  23
BRANCH   4  29
ATOM     29  C25 ZIN AC000     -13.406  -5.730   3.151  0.00  0.00     0.027 A 
ATOM     30  C31 ZIN AC000     -14.145  -5.144   2.138  0.00  0.00     0.047 A 
ATOM     31  C30 ZIN AC000     -15.402  -4.633   2.406  0.00  0.00     0.048 A 
ATOM     32 Cl32 ZIN AC000     -13.498  -5.061   0.529  0.00  0.00    -0.084 Cl
ATOM     33  C28 ZIN AC000     -15.916  -4.699   3.689  0.00  0.00     0.035 A 
ATOM     34  C27 ZIN AC000     -15.175  -5.280   4.702  0.00  0.00     0.024 A 
ATOM     35 Cl29 ZIN AC000     -17.491  -4.052   4.027  0.00  0.00    -0.084 Cl
ATOM     36  C26 ZIN AC000     -13.920  -5.795   4.432  0.00  0.00     0.016 A 
ENDBRANCH   4  29
TORSDOF 8
