REMARK  15 active torsions:
REMARK  status: ('A' for Active; 'I' for Inactive)
REMARK    1  A    between atoms: C2_2  and  C3_3 
REMARK    2  A    between atoms: C3_3  and  C4_4 
REMARK    3  A    between atoms: C4_4  and  C5_5 
REMARK    4  A    between atoms: C5_5  and  C6_6 
REMARK    5  A    between atoms: C6_6  and  C7_7 
REMARK    6  A    between atoms: C7_7  and  C8_8 
REMARK    7  A    between atoms: C8_8  and  C9_9 
REMARK    8  A    between atoms: C12_12  and  C13_13 
REMARK    9  A    between atoms: C13_13  and  C14_14 
REMARK   10  A    between atoms: C14_14  and  C15_15 
REMARK   11  A    between atoms: C15_15  and  N16_16 
REMARK   12  A    between atoms: C15_15  and  C20_20 
REMARK   13  A    between atoms: C15_15  and  C22_22 
REMARK   14  A    between atoms: C20_20  and  O21_21 
REMARK   15  A    between atoms: C22_22  and  O23_23 
ROOT
ATOM      1  C9  ZIN AC000       3.013  -6.613   4.916  0.00  0.00    -0.058 A 
ATOM      2  C10 ZIN AC000       4.379  -6.819   4.870  0.00  0.00     0.007 A 
ATOM      3  C11 ZIN AC000       5.048  -7.277   5.989  0.00  0.00     0.007 A 
ATOM      4  C12 ZIN AC000       4.350  -7.529   7.156  0.00  0.00    -0.058 A 
ATOM      5  C24 ZIN AC000       2.985  -7.321   7.203  0.00  0.00     0.007 A 
ATOM      6  C25 ZIN AC000       2.317  -6.860   6.085  0.00  0.00     0.007 A 
ENDROOT
BRANCH   4   7
ATOM      7  C13 ZIN AC000       5.079  -8.028   8.377  0.00  0.00     0.041 C 
BRANCH   7   8
ATOM      8  C14 ZIN AC000       5.547  -6.837   9.215  0.00  0.00     0.048 C 
BRANCH   8   9
ATOM      9  C15 ZIN AC000       6.287  -7.344  10.454  0.00  0.00     0.165 C 
BRANCH   9  10
ATOM     10  N16 ZIN AC000       7.451  -8.138  10.039  0.00  0.00    -0.066 N 
ATOM     11  H17 ZIN AC000       8.071  -7.562   9.489  0.00  0.00     0.275 HD
ATOM     12  H18 ZIN AC000       7.939  -8.472  10.856  0.00  0.00     0.275 HD
ATOM     13  H19 ZIN AC000       7.143  -8.923   9.486  0.00  0.00     0.275 HD
ENDBRANCH   9  10
BRANCH   9  14
ATOM     14  C20 ZIN AC000       6.754  -6.153  11.293  0.00  0.00     0.205 C 
BRANCH  14  15
ATOM     15  O21 ZIN AC000       7.545  -6.621  12.387  0.00  0.00    -0.398 OA
ATOM     16  H51 ZIN AC000       7.876  -5.918  12.963  0.00  0.00     0.209 HD
ENDBRANCH  14  15
ENDBRANCH   9  14
BRANCH   9  17
ATOM     17  C22 ZIN AC000       5.346  -8.217  11.288  0.00  0.00     0.205 C 
BRANCH  17  18
ATOM     18  O23 ZIN AC000       4.214  -7.445  11.693  0.00  0.00    -0.398 OA
ATOM     19  H54 ZIN AC000       3.574  -7.935  12.226  0.00  0.00     0.209 HD
ENDBRANCH  17  18
ENDBRANCH   9  17
ENDBRANCH   8   9
ENDBRANCH   7   8
ENDBRANCH   4   7
BRANCH   1  20
ATOM     20  C8  ZIN AC000       2.284  -6.114   3.695  0.00  0.00     0.038 C 
BRANCH  20  21
ATOM     21  C7  ZIN AC000       2.264  -4.584   3.704  0.00  0.00     0.005 C 
BRANCH  21  22
ATOM     22  C6  ZIN AC000       1.524  -4.077   2.464  0.00  0.00     0.000 C 
BRANCH  22  23
ATOM     23  C5  ZIN AC000       1.503  -2.548   2.473  0.00  0.00     0.000 C 
BRANCH  23  24
ATOM     24  C4  ZIN AC000       0.763  -2.041   1.233  0.00  0.00     0.000 C 
BRANCH  24  25
ATOM     25  C3  ZIN AC000       0.742  -0.511   1.242  0.00  0.00    -0.000 C 
BRANCH  25  26
ATOM     26  C2  ZIN AC000       0.002  -0.004   0.002  0.00  0.00    -0.005 C 
ATOM     27  C1  ZIN AC000      -0.019   1.526   0.010  0.00  0.00     0.005 C 
ENDBRANCH  25  26
ENDBRANCH  24  25
ENDBRANCH  23  24
ENDBRANCH  22  23
ENDBRANCH  21  22
ENDBRANCH  20  21
ENDBRANCH   1  20
TORSDOF 15
