REMARK  11 active torsions:
REMARK  status: ('A' for Active; 'I' for Inactive)
REMARK    1  A    between atoms: N1_1  and  C2_2 
REMARK    2  A    between atoms: N9_9  and  C10_10 
REMARK    3  A    between atoms: C12_12  and  C14_13 
REMARK    4  A    between atoms: C14_13  and  N15_14 
REMARK    5  A    between atoms: N15_14  and  C16_15 
REMARK    6  A    between atoms: C19_18  and  C20_19 
REMARK       I    between atoms: C20_19  and  N22_21 
REMARK    7  A    between atoms: N22_21  and  C23_22 
REMARK    8  A    between atoms: C23_22  and  C25_23 
REMARK    9  A    between atoms: C23_22  and  C30_28 
REMARK   10  A    between atoms: C25_23  and  C26_24 
REMARK   11  A    between atoms: C26_24  and  C27_25 
ROOT
ATOM      1  N15 ZIN AC000      -0.269  -5.313   2.510  0.00  0.00    -0.388 N 
ATOM      2  H42 ZIN AC000       0.484  -5.635   1.990  0.00  0.00     0.159 HD
ENDROOT
BRANCH   1   3
ATOM      3  C14 ZIN AC000      -1.446  -4.763   1.833  0.00  0.00     0.147 C 
BRANCH   3   4
ATOM      4  C12 ZIN AC000      -1.232  -4.810   0.319  0.00  0.00     0.128 C 
ATOM      5  N9  ZIN AC000       0.019  -4.116  -0.029  0.00  0.00    -0.309 N 
ATOM      6  C5  ZIN AC000       0.035  -2.707  -0.007  0.00  0.00     0.155 A 
ATOM      7  C4  ZIN AC000      -1.159  -1.997   0.005  0.00  0.00     0.175 A 
ATOM      8  C6  ZIN AC000       1.245  -2.004   0.001  0.00  0.00     0.314 A 
ATOM      9  N3  ZIN AC000      -1.132  -0.659   0.021  0.00  0.00    -0.043 NA
ATOM     10  N36 ZIN AC000      -2.366  -2.676   0.003  0.00  0.00    -0.370 N 
ATOM     11  C2  ZIN AC000       0.009  -0.004   0.027  0.00  0.00     0.725 A 
ATOM     12  N8  ZIN AC000       1.205  -0.654   0.013  0.00  0.00    -0.020 NA
ATOM     13  C35 ZIN AC000      -2.388  -4.091  -0.392  0.00  0.00     0.148 C 
ATOM     14  H54 ZIN AC000      -3.185  -2.224   0.259  0.00  0.00     0.161 HD
ATOM     15  O7  ZIN AC000       2.312  -2.598  -0.008  0.00  0.00    -0.263 OA
BRANCH   5  16
ATOM     16  C10 ZIN AC000       1.124  -4.813  -0.360  0.00  0.00     0.356 C 
ATOM     17  O11 ZIN AC000       1.125  -6.024  -0.279  0.00  0.00    -0.283 OA
ENDBRANCH   5  16
BRANCH  11  18
ATOM     18  N1  ZIN AC000      -0.007   1.367   0.043  0.00  0.00    -0.231 N 
ATOM     19  H37 ZIN AC000       0.828   1.861   0.044  0.00  0.00     0.174 HD
ATOM     20  H38 ZIN AC000      -0.852   1.842   0.049  0.00  0.00     0.174 HD
ENDBRANCH  11  18
ENDBRANCH   3   4
ENDBRANCH   1   3
BRANCH   1  21
ATOM     21  C16 ZIN AC000      -0.231  -5.375   3.898  0.00  0.00     0.028 A 
ATOM     22  C34 ZIN AC000       0.888  -5.899   4.540  0.00  0.00     0.030 A 
ATOM     23  C33 ZIN AC000       0.931  -5.956   5.915  0.00  0.00     0.019 A 
ATOM     24  C19 ZIN AC000      -0.156  -5.498   6.666  0.00  0.00     0.032 A 
ATOM     25  C18 ZIN AC000      -1.280  -4.978   6.018  0.00  0.00     0.019 A 
ATOM     26  C17 ZIN AC000      -1.315  -4.918   4.644  0.00  0.00     0.030 A 
BRANCH  24  27
ATOM     27  C20 ZIN AC000      -0.116  -5.564   8.139  0.00  0.00     0.252 C 
ATOM     28  O21 ZIN AC000      -1.061  -5.166   8.791  0.00  0.00    -0.268 OA
ATOM     29  N22 ZIN AC000       0.969  -6.066   8.762  0.00  0.00    -0.342 N 
ATOM     30  H45 ZIN AC000       1.724  -6.384   8.242  0.00  0.00     0.163 HD
BRANCH  29  31
ATOM     31  C23 ZIN AC000       1.009  -6.131  10.225  0.00  0.00     0.186 C 
BRANCH  31  32
ATOM     32  C25 ZIN AC000       1.970  -7.239  10.660  0.00  0.00     0.046 C 
BRANCH  32  33
ATOM     33  C26 ZIN AC000       1.424  -8.595  10.209  0.00  0.00     0.116 C 
BRANCH  33  34
ATOM     34  C27 ZIN AC000       2.371  -9.687  10.637  0.00  0.00     0.172 C 
ATOM     35  O28 ZIN AC000       3.388  -9.406  11.247  0.00  0.00    -0.648 OA
ATOM     36  O29 ZIN AC000       2.119 -10.850  10.374  0.00  0.00    -0.648 OA
ENDBRANCH  33  34
ENDBRANCH  32  33
ENDBRANCH  31  32
BRANCH  31  37
ATOM     37  C30 ZIN AC000       1.483  -4.811  10.774  0.00  0.00     0.196 C 
ATOM     38  O31 ZIN AC000       1.762  -3.899  10.014  0.00  0.00    -0.646 OA
ATOM     39  O32 ZIN AC000       1.588  -4.654  11.979  0.00  0.00    -0.646 OA
ENDBRANCH  31  37
ENDBRANCH  29  31
ENDBRANCH  24  27
ENDBRANCH   1  21
TORSDOF 11
