REMARK  11 active torsions:
REMARK  status: ('A' for Active; 'I' for Inactive)
REMARK    1  A    between atoms: C2_2  and  N4_4 
REMARK    2  A    between atoms: C11_11  and  C12_12 
REMARK    3  A    between atoms: C19_19  and  C20_20 
REMARK    4  A    between atoms: C20_20  and  C21_21 
REMARK    5  A    between atoms: C21_21  and  C22_22 
REMARK    6  A    between atoms: C22_22  and  O24_23 
REMARK    7  A    between atoms: C22_22  and  C25_24 
REMARK    8  A    between atoms: C25_24  and  C26_25 
REMARK    9  A    between atoms: C26_25  and  O28_26 
REMARK   10  A    between atoms: C26_25  and  C29_27 
REMARK   11  A    between atoms: C29_27  and  C30_28 
ROOT
ATOM      1  N4  ZIN AC000       0.891  -0.597   1.430  0.00  0.00    -0.341 N 
ATOM      2  C5  ZIN AC000       2.129  -0.257   1.931  0.00  0.00     0.046 A 
ATOM      3  C6  ZIN AC000       3.247   0.348   1.365  0.00  0.00     0.030 A 
ATOM      4  C7  ZIN AC000       4.372   0.565   2.131  0.00  0.00     0.002 A 
ATOM      5  C8  ZIN AC000       4.403   0.185   3.465  0.00  0.00     0.001 A 
ATOM      6  C9  ZIN AC000       3.317  -0.411   4.042  0.00  0.00     0.014 A 
ATOM      7  C10 ZIN AC000       2.168  -0.640   3.284  0.00  0.00     0.004 A 
ATOM      8  C11 ZIN AC000       0.860  -1.242   3.582  0.00  0.00     0.013 A 
ATOM      9  C19 ZIN AC000       0.125  -1.180   2.413  0.00  0.00     0.047 A 
ENDROOT
BRANCH   9  10
ATOM     10  C20 ZIN AC000      -1.250  -1.668   2.245  0.00  0.00     0.029 C 
BRANCH  10  11
ATOM     11  C21 ZIN AC000      -1.546  -2.934   2.533  0.00  0.00     0.007 C 
BRANCH  11  12
ATOM     12  C22 ZIN AC000      -2.977  -3.404   2.473  0.00  0.00     0.143 C 
BRANCH  12  13
ATOM     13  O24 ZIN AC000      -3.375  -3.883   3.760  0.00  0.00    -0.392 OA
ATOM     14  H50 ZIN AC000      -2.844  -4.623   4.085  0.00  0.00     0.210 HD
ENDBRANCH  12  13
BRANCH  12  15
ATOM     15  C25 ZIN AC000      -3.100  -4.534   1.448  0.00  0.00     0.068 C 
BRANCH  15  16
ATOM     16  C26 ZIN AC000      -4.571  -4.927   1.297  0.00  0.00     0.130 C 
BRANCH  16  17
ATOM     17  O28 ZIN AC000      -5.045  -5.479   2.526  0.00  0.00    -0.395 OA
ATOM     18  H53 ZIN AC000      -4.567  -6.269   2.814  0.00  0.00     0.210 HD
ENDBRANCH  16  17
BRANCH  16  19
ATOM     19  C29 ZIN AC000      -4.708  -5.968   0.184  0.00  0.00     0.144 C 
BRANCH  19  20
ATOM     20  C30 ZIN AC000      -6.167  -6.264  -0.049  0.00  0.00     0.175 C 
ATOM     21  O31 ZIN AC000      -7.018  -5.696   0.614  0.00  0.00    -0.648 OA
ATOM     22  O32 ZIN AC000      -6.497  -7.073  -0.900  0.00  0.00    -0.648 OA
ENDBRANCH  19  20
ENDBRANCH  16  19
ENDBRANCH  15  16
ENDBRANCH  12  15
ENDBRANCH  11  12
ENDBRANCH  10  11
ENDBRANCH   9  10
BRANCH   1  23
ATOM     23  C2  ZIN AC000       0.451  -0.364   0.052  0.00  0.00     0.082 C 
ATOM     24  C1  ZIN AC000       0.504   1.134  -0.254  0.00  0.00     0.032 C 
ATOM     25  C3  ZIN AC000       1.373  -1.114  -0.911  0.00  0.00     0.032 C 
ENDBRANCH   1  23
BRANCH   8  26
ATOM     26  C12 ZIN AC000       0.416  -1.799   4.878  0.00  0.00    -0.023 A 
ATOM     27  C18 ZIN AC000      -0.613  -1.182   5.590  0.00  0.00     0.015 A 
ATOM     28  C17 ZIN AC000      -1.027  -1.709   6.796  0.00  0.00     0.043 A 
ATOM     29  C15 ZIN AC000      -0.415  -2.842   7.306  0.00  0.00     0.116 A 
ATOM     30  C14 ZIN AC000       0.612  -3.455   6.607  0.00  0.00     0.043 A 
ATOM     31  F16 ZIN AC000      -0.820  -3.351   8.490  0.00  0.00    -0.206 F 
ATOM     32  C13 ZIN AC000       1.030  -2.940   5.397  0.00  0.00     0.015 A 
ENDBRANCH   8  26
TORSDOF 11
