REMARK  11 active torsions:
REMARK  status: ('A' for Active; 'I' for Inactive)
REMARK    1  A    between atoms: C2_2  and  C3_3 
REMARK    2  A    between atoms: C3_3  and  C4_4 
REMARK    3  A    between atoms: C7_6  and  C9_7 
REMARK       I    between atoms: C9_7  and  N11_9 
REMARK    4  A    between atoms: N11_9  and  C12_10 
REMARK    5  A    between atoms: C12_10  and  C14_11 
REMARK    6  A    between atoms: C12_10  and  C18_14 
REMARK    7  A    between atoms: C14_11  and  O17_13 
REMARK    8  A    between atoms: C21_16  and  S23_17 
REMARK    9  A    between atoms: C25_19  and  O27_20 
REMARK   10  A    between atoms: C28_21  and  O30_22 
REMARK   11  A    between atoms: C31_23  and  O33_24 
ROOT
ATOM      1  C12 ZIN AC000       2.644  -5.613  -5.585  0.00  0.00     0.144 C 
ENDROOT
BRANCH   1   2
ATOM      2  N11 ZIN AC000       2.173  -4.320  -5.082  0.00  0.00    -0.350 N 
ATOM      3  C9  ZIN AC000       1.439  -4.263  -3.953  0.00  0.00     0.251 C 
ATOM      4  O10 ZIN AC000       1.168  -5.282  -3.354  0.00  0.00    -0.271 OA
ATOM      5  H46 ZIN AC000       2.390  -3.505  -5.561  0.00  0.00     0.163 HD
BRANCH   3   6
ATOM      6  C7  ZIN AC000       0.955  -2.933  -3.436  0.00  0.00     0.314 C 
ATOM      7  C6  ZIN AC000       2.085  -2.207  -2.676  0.00  0.00     0.052 C 
ATOM      8  C4  ZIN AC000       1.386  -1.503  -1.494  0.00  0.00     0.016 C 
ATOM      9  C36 ZIN AC000      -0.108  -1.863  -1.637  0.00  0.00     0.277 C 
ATOM     10  N34 ZIN AC000      -0.114  -3.126  -2.422  0.00  0.00     0.098 N 
ATOM     11  C35 ZIN AC000      -1.417  -3.341  -3.066  0.00  0.00     0.310 C 
BRANCH   8  12
ATOM     12  C3  ZIN AC000       1.579   0.012  -1.588  0.00  0.00     0.006 C 
BRANCH  12  13
ATOM     13  C2  ZIN AC000       0.956   0.682  -0.362  0.00  0.00    -0.004 C 
ATOM     14  C1  ZIN AC000       1.149   2.197  -0.456  0.00  0.00     0.005 C 
ENDBRANCH  12  13
ENDBRANCH   8  12
ENDBRANCH   3   6
ENDBRANCH   1   2
BRANCH   1  15
ATOM     15  C14 ZIN AC000       3.954  -5.985  -4.888  0.00  0.00     0.139 C 
ATOM     16  C16 ZIN AC000       4.963  -4.847  -5.058  0.00  0.00     0.041 C 
BRANCH  15  17
ATOM     17  O17 ZIN AC000       3.710  -6.200  -3.497  0.00  0.00    -0.394 OA
ATOM     18  H50 ZIN AC000       3.152  -6.968  -3.310  0.00  0.00     0.210 HD
ENDBRANCH  15  17
ENDBRANCH   1  15
BRANCH   1  19
ATOM     19  C18 ZIN AC000       2.878  -5.519  -7.094  0.00  0.00     0.179 C 
ATOM     20  C31 ZIN AC000       1.572  -5.125  -7.789  0.00  0.00     0.180 C 
ATOM     21  C28 ZIN AC000       1.799  -5.092  -9.304  0.00  0.00     0.181 C 
ATOM     22  C25 ZIN AC000       2.313  -6.460  -9.762  0.00  0.00     0.188 C 
ATOM     23  C21 ZIN AC000       3.590  -6.802  -8.991  0.00  0.00     0.214 C 
ATOM     24  O20 ZIN AC000       3.316  -6.786  -7.588  0.00  0.00    -0.363 OA
BRANCH  20  25
ATOM     25  O33 ZIN AC000       0.558  -6.082  -7.479  0.00  0.00    -0.390 OA
ATOM     26  H56 ZIN AC000      -0.297  -5.897  -7.892  0.00  0.00     0.210 HD
ENDBRANCH  20  25
BRANCH  21  27
ATOM     27  O30 ZIN AC000       0.569  -4.796  -9.967  0.00  0.00    -0.390 OA
ATOM     28  H55 ZIN AC000       0.639  -4.766 -10.931  0.00  0.00     0.210 HD
ENDBRANCH  21  27
BRANCH  22  29
ATOM     29  O27 ZIN AC000       2.597  -6.420 -11.162  0.00  0.00    -0.389 OA
ATOM     30  H54 ZIN AC000       2.931  -7.255 -11.520  0.00  0.00     0.210 HD
ENDBRANCH  22  29
BRANCH  23  31
ATOM     31  S23 ZIN AC000       4.873  -5.577  -9.371  0.00  0.00    -0.139 SA
ATOM     32  C24 ZIN AC000       6.362  -6.302  -8.630  0.00  0.00     0.092 C 
ENDBRANCH  23  31
ENDBRANCH   1  19
TORSDOF 11
