REMARK  0 active torsions:
REMARK  status: ('A' for Active; 'I' for Inactive)
ROOT
ATOM      1 Cl1  ZIN AC000       0.896   0.081  -0.409  0.00  0.00    -0.084 Cl
ATOM      2  C2  ZIN AC000       0.612   1.789  -0.281  0.00  0.00     0.034 A 
ATOM      3  C3  ZIN AC000      -0.684   2.275  -0.334  0.00  0.00     0.024 A 
ATOM      4  C4  ZIN AC000      -0.916   3.634  -0.238  0.00  0.00     0.014 A 
ATOM      5  C5  ZIN AC000       0.168   4.495  -0.087  0.00  0.00    -0.017 A 
ATOM      6  C6  ZIN AC000       1.453   4.015  -0.026  0.00  0.00    -0.045 A 
ATOM      7  C7  ZIN AC000       1.683   2.653  -0.122  0.00  0.00     0.031 A 
ATOM      8  C8  ZIN AC000       2.601   4.959   0.164  0.00  0.00     0.044 C 
ATOM      9  C9  ZIN AC000       2.667   5.537   1.552  0.00  0.00     0.045 C 
ATOM     10  C10 ZIN AC000       1.554   6.489   1.902  0.00  0.00    -0.028 A 
ATOM     11  C11 ZIN AC000       1.775   7.228   3.072  0.00  0.00     0.011 A 
ATOM     12  C12 ZIN AC000       0.838   8.152   3.489  0.00  0.00     0.020 A 
ATOM     13  C13 ZIN AC000      -0.308   8.335   2.737  0.00  0.00     0.117 A 
ATOM     14  N14 ZIN AC000      -0.499   7.629   1.649  0.00  0.00    -0.260 NA
ATOM     15  C15 ZIN AC000       0.376   6.713   1.217  0.00  0.00     0.074 A 
ATOM     16  C16 ZIN AC000      -0.019   5.960   0.006  0.00  0.00     0.006 C 
ATOM     17  C17 ZIN AC000      -0.557   6.618  -1.027  0.00  0.00    -0.063 C 
ATOM     18  C18 ZIN AC000      -0.641   8.131  -1.036  0.00  0.00     0.062 C 
ATOM     19  C19 ZIN AC000      -0.114   8.631  -2.385  0.00  0.00     0.236 C 
ATOM     20  N20 ZIN AC000      -0.850   7.974  -3.472  0.00  0.00    -0.075 N 
ATOM     21  H21 ZIN AC000      -1.841   8.103  -3.331  0.00  0.00     0.277 HD
ATOM     22  H22 ZIN AC000      -0.581   8.385  -4.354  0.00  0.00     0.277 HD
ATOM     23  C23 ZIN AC000      -0.545   6.538  -3.494  0.00  0.00     0.236 C 
ATOM     24  C24 ZIN AC000      -1.099   5.878  -2.232  0.00  0.00     0.062 C 
ENDROOT
TORSDOF 0
