REMARK  6 active torsions:
REMARK  status: ('A' for Active; 'I' for Inactive)
REMARK    1  A    between atoms: C5_5  and  C6_6 
REMARK    2  A    between atoms: C6_6  and  C14_14 
REMARK    3  A    between atoms: C7_7  and  C8_8 
REMARK    4  A    between atoms: C8_8  and  N9_9 
REMARK    5  A    between atoms: C18_18  and  C19_19 
REMARK    6  A    between atoms: C20_20  and  C21_21 
ROOT
ATOM      1  C6  <0> d           0.592  -6.950   1.384  0.00  0.00     0.001 C 
ATOM      2  C7  <0> d           1.093  -7.899   2.185  0.00  0.00     0.018 C 
ENDROOT
BRANCH   1   3
ATOM      3  C5  <0> d           1.103  -5.561   1.472  0.00  0.00    -0.024 A 
ATOM      4  C4  <0> d           1.783  -4.995   0.395  0.00  0.00     0.013 A 
ATOM      5  C3  <0> d           2.256  -3.702   0.483  0.00  0.00     0.007 A 
ATOM      6  C2  <0> d           2.055  -2.966   1.638  0.00  0.00    -0.062 A 
ATOM      7  C1  <0> d           2.575  -1.554   1.728  0.00  0.00     0.048 C 
ATOM      8  C26 <0> d           1.386  -3.524   2.712  0.00  0.00     0.007 A 
ATOM      9  C25 <0> d           0.904  -4.815   2.633  0.00  0.00     0.013 A 
ENDBRANCH   1   3
BRANCH   1  10
ATOM     10  C14 <0> d          -0.472  -7.288   0.409  0.00  0.00     0.068 A 
ATOM     11  N24 <0> d          -1.742  -7.107   0.736  0.00  0.00    -0.248 NA
ATOM     12  C18 <0> d          -2.724  -7.392  -0.112  0.00  0.00     0.057 A 
ATOM     13  C17 <0> d          -2.443  -7.908  -1.380  0.00  0.00     0.031 A 
ATOM     14  C16 <0> d          -1.123  -8.114  -1.749  0.00  0.00     0.005 A 
ATOM     15  C15 <0> d          -0.124  -7.801  -0.844  0.00  0.00     0.032 A 
BRANCH  12  16
ATOM     16  C19 <0> d          -4.124  -7.169   0.292  0.00  0.00     0.038 C 
ATOM     17  C20 <0> d          -4.399  -6.554   1.461  0.00  0.00     0.086 C 
BRANCH  17  18
ATOM     18  C21 <0> d          -3.398  -5.691   2.086  0.00  0.00     0.198 C 
ATOM     19  O22 <0> d          -2.505  -5.199   1.408  0.00  0.00    -0.645 OA
ATOM     20  O23 <0> d          -3.454  -5.460   3.287  0.00  0.00    -0.645 OA
ENDBRANCH  17  18
ENDBRANCH  12  16
ENDBRANCH   1  10
BRANCH   2  21
ATOM     21  C8  <0> d           0.490  -9.280   2.184  0.00  0.00     0.300 C 
BRANCH  21  22
ATOM     22  N9  <0> d           1.535 -10.271   1.895  0.00  0.00     0.091 N 
ATOM     23  C13 <0> d           0.948 -11.606   1.650  0.00  0.00     0.273 C 
ATOM     24  C12 <0> d           1.941 -12.645   2.202  0.00  0.00     0.032 C 
ATOM     25  C11 <0> d           3.103 -11.816   2.797  0.00  0.00     0.032 C 
ATOM     26  C10 <0> d           2.447 -10.436   3.056  0.00  0.00     0.273 C 
ENDBRANCH  21  22
ENDBRANCH   2  21
TORSDOF 6
