REMARK  15 active torsions:
REMARK  status: ('A' for Active; 'I' for Inactive)
REMARK    1  A    between atoms: O2_2  and  C3_3 
REMARK    2  A    between atoms: C3_3  and  C4_4 
REMARK       I    between atoms: C4_4  and  N6_6 
REMARK    3  A    between atoms: N6_6  and  C7_7 
REMARK    4  A    between atoms: C10_10  and  C11_11 
REMARK       I    between atoms: C11_11  and  N13_13 
REMARK    5  A    between atoms: N13_13  and  C14_14 
REMARK    6  A    between atoms: C14_14  and  C15_15 
REMARK    7  A    between atoms: C15_15  and  O17_16 
REMARK    8  A    between atoms: C15_15  and  C18_17 
REMARK    9  A    between atoms: C18_17  and  O19_18 
REMARK   10  A    between atoms: C22_21  and  C23_22 
REMARK       I    between atoms: C23_22  and  N25_24 
REMARK   11  A    between atoms: N25_24  and  C27_26 
REMARK   12  A    between atoms: C27_26  and  C28_27 
REMARK   13  A    between atoms: C28_27  and  O30_28 
REMARK   14  A    between atoms: C28_27  and  C31_29 
REMARK   15  A    between atoms: C31_29  and  O32_30 
ROOT
ATOM      1  C7  ZIN AC000       1.240  -4.221  -1.928  0.00  0.00     0.070 A 
ATOM      2  C8  ZIN AC000       0.920  -4.859  -0.739  0.00  0.00     0.051 A 
ATOM      3  I9  ZIN AC000       0.331  -3.732   0.927  0.00  0.00    -0.041 I 
ATOM      4  C10 ZIN AC000       0.989  -6.251  -0.650  0.00  0.00     0.068 A 
ATOM      5  C20 ZIN AC000       1.380  -7.000  -1.759  0.00  0.00     0.040 A 
ATOM      6  I21 ZIN AC000       1.485  -9.089  -1.632  0.00  0.00    -0.042 I 
ATOM      7  C22 ZIN AC000       1.702  -6.356  -2.953  0.00  0.00     0.068 A 
ATOM      8  C33 ZIN AC000       1.625  -4.963  -3.036  0.00  0.00     0.051 A 
ATOM      9  I34 ZIN AC000       2.107  -3.994  -4.829  0.00  0.00    -0.041 I 
ENDROOT
BRANCH   4  10
ATOM     10  C11 ZIN AC000       0.647  -6.930   0.618  0.00  0.00     0.254 C 
ATOM     11  O12 ZIN AC000      -0.498  -7.278   0.831  0.00  0.00    -0.268 OA
ATOM     12  N13 ZIN AC000       1.605  -7.162   1.537  0.00  0.00    -0.354 N 
ATOM     13  H41 ZIN AC000       2.518  -6.884   1.367  0.00  0.00     0.162 HD
BRANCH  12  14
ATOM     14  C14 ZIN AC000       1.266  -7.835   2.794  0.00  0.00     0.156 C 
BRANCH  14  15
ATOM     15  C15 ZIN AC000       2.524  -7.974   3.653  0.00  0.00     0.159 C 
BRANCH  15  16
ATOM     16  O17 ZIN AC000       3.499  -8.744   2.949  0.00  0.00    -0.392 OA
ATOM     17  H44 ZIN AC000       3.207  -9.638   2.724  0.00  0.00     0.210 HD
ENDBRANCH  15  16
BRANCH  15  18
ATOM     18  C18 ZIN AC000       2.170  -8.676   4.965  0.00  0.00     0.197 C 
BRANCH  18  19
ATOM     19  O19 ZIN AC000       3.317  -8.702   5.816  0.00  0.00    -0.398 OA
ATOM     20  H47 ZIN AC000       3.166  -9.134   6.668  0.00  0.00     0.209 HD
ENDBRANCH  18  19
ENDBRANCH  15  18
ENDBRANCH  14  15
ENDBRANCH  12  14
ENDBRANCH   4  10
BRANCH   1  21
ATOM     21  N6  ZIN AC000       1.170  -2.825  -2.014  0.00  0.00    -0.323 N 
ATOM     22  C4  ZIN AC000       2.243  -2.075  -1.691  0.00  0.00     0.245 C 
ATOM     23  O5  ZIN AC000       3.243  -2.604  -1.254  0.00  0.00    -0.271 OA
ATOM     24  H40 ZIN AC000       0.349  -2.397  -2.304  0.00  0.00     0.169 HD
BRANCH  22  25
ATOM     25  C3  ZIN AC000       2.199  -0.580  -1.874  0.00  0.00     0.270 C 
BRANCH  25  26
ATOM     26  O2  ZIN AC000       3.446  -0.014  -1.466  0.00  0.00    -0.387 OA
ATOM     27  C1  ZIN AC000       3.511   1.407  -1.599  0.00  0.00     0.202 C 
ENDBRANCH  25  26
ENDBRANCH  22  25
ENDBRANCH   1  21
BRANCH   7  28
ATOM     28  C23 ZIN AC000       2.116  -7.145  -4.131  0.00  0.00     0.256 C 
ATOM     29  O24 ZIN AC000       1.282  -7.539  -4.923  0.00  0.00    -0.267 OA
ATOM     30  N25 ZIN AC000       3.419  -7.429  -4.327  0.00  0.00    -0.350 N 
ATOM     31  C26 ZIN AC000       4.424  -6.954  -3.373  0.00  0.00     0.153 C 
BRANCH  30  32
ATOM     32  C27 ZIN AC000       3.830  -8.211  -5.496  0.00  0.00     0.159 C 
BRANCH  32  33
ATOM     33  C28 ZIN AC000       4.123  -7.268  -6.664  0.00  0.00     0.159 C 
BRANCH  33  34
ATOM     34  O30 ZIN AC000       2.946  -6.522  -6.981  0.00  0.00    -0.392 OA
ATOM     35  H53 ZIN AC000       2.192  -7.069  -7.238  0.00  0.00     0.210 HD
ENDBRANCH  33  34
BRANCH  33  36
ATOM     36  C31 ZIN AC000       4.553  -8.085  -7.884  0.00  0.00     0.197 C 
BRANCH  36  37
ATOM     37  O32 ZIN AC000       4.938  -7.201  -8.938  0.00  0.00    -0.398 OA
ATOM     38  H56 ZIN AC000       5.223  -7.652  -9.745  0.00  0.00     0.209 HD
ENDBRANCH  36  37
ENDBRANCH  33  36
ENDBRANCH  32  33
ENDBRANCH  30  32
ENDBRANCH   7  28
TORSDOF 15
