REMARK  3 active torsions:
REMARK  status: ('A' for Active; 'I' for Inactive)
REMARK    1  A    between atoms: O2_2  and  C3_3 
REMARK    2  A    between atoms: C8_8  and  C9_9 
REMARK    3  A    between atoms: C9_9  and  C12_11 
ROOT
ATOM      1  C3  <0> d           0.626  -0.618   1.041  0.00  0.00     0.069 A 
ATOM      2  C4  <0> d           1.203   0.154   2.053  0.00  0.00     0.037 A 
ATOM      3  C5  <0> d           1.834  -0.431   3.106  0.00  0.00     0.015 A 
ATOM      4  C6  <0> d           1.909  -1.833   3.183  0.00  0.00    -0.025 A 
ATOM      5  C7  <0> d           2.553  -2.471   4.256  0.00  0.00     0.020 A 
ATOM      6  C8  <0> d           2.606  -3.830   4.298  0.00  0.00    -0.043 A 
ATOM      7  C15 <0> d           2.031  -4.603   3.291  0.00  0.00     0.009 A 
ATOM      8  C16 <0> d           1.399  -4.020   2.236  0.00  0.00     0.013 A 
ATOM      9  C17 <0> d           1.324  -2.619   2.158  0.00  0.00    -0.023 A 
ATOM     10  C18 <0> d           0.675  -1.983   1.087  0.00  0.00     0.049 A 
ENDROOT
BRANCH   6  11
ATOM     11  C9  <0> d           3.297  -4.511   5.452  0.00  0.00     0.115 C 
ATOM     12  C11 <0> d           4.453  -5.362   4.924  0.00  0.00     0.026 C 
BRANCH  11  13
ATOM     13  C12 <0> d           2.313  -5.393   6.177  0.00  0.00     0.181 C 
ATOM     14  O13 <0> d           1.159  -5.464   5.792  0.00  0.00    -0.647 OA
ATOM     15  O14 <0> d           2.673  -6.037   7.148  0.00  0.00    -0.647 OA
ENDBRANCH  11  13
ENDBRANCH   6  11
BRANCH   1  16
ATOM     16  O2  <0> d           0.002  -0.004   0.002  0.00  0.00    -0.356 OA
ATOM     17  C1  <0> d          -0.017   1.425   0.010  0.00  0.00     0.210 C 
ENDBRANCH   1  16
TORSDOF 3
