REMARK  3 active torsions:
REMARK  status: ('A' for Active; 'I' for Inactive)
REMARK    1  A    between atoms: N1_1  and  C2_2 
REMARK    2  A    between atoms: C4_4  and  N5_5 
REMARK    3  A    between atoms: C9_9  and  C10_10 
ROOT
ATOM      1  C2  ZIN AC000       0.032  -0.022   0.214  0.00  0.00     0.172 A 
ATOM      2  N3  ZIN AC000      -1.097  -0.717   0.307  0.00  0.00    -0.044 NA
ATOM      3  C4  ZIN AC000      -1.077  -2.026   0.090  0.00  0.00     0.716 A 
ATOM      4  N6  ZIN AC000       0.052  -2.652  -0.217  0.00  0.00    -0.107 N 
ATOM      5  H7  ZIN AC000       0.036  -3.609  -0.371  0.00  0.00     0.208 HD
ATOM      6  N8  ZIN AC000       1.168  -2.018  -0.318  0.00  0.00    -0.155 NA
ATOM      7  C9  ZIN AC000       1.217  -0.707  -0.119  0.00  0.00     0.135 A 
ENDROOT
BRANCH   7   8
ATOM      8  C10 ZIN AC000       2.501   0.024  -0.235  0.00  0.00     0.022 A 
ATOM      9  C16 ZIN AC000       3.632  -0.436   0.442  0.00  0.00     0.068 A 
ATOM     10  C14 ZIN AC000       4.828   0.247   0.324  0.00  0.00     0.056 A 
ATOM     11 Cl17 ZIN AC000       3.540  -1.869   1.416  0.00  0.00    -0.082 Cl
ATOM     12  C13 ZIN AC000       4.901   1.391  -0.453  0.00  0.00     0.026 A 
ATOM     13 Cl15 ZIN AC000       6.239  -0.326   1.158  0.00  0.00    -0.083 Cl
ATOM     14  C12 ZIN AC000       3.781   1.853  -1.120  0.00  0.00     0.003 A 
ATOM     15  C11 ZIN AC000       2.583   1.176  -1.015  0.00  0.00     0.016 A 
ENDBRANCH   7   8
BRANCH   1  16
ATOM     16  N1  ZIN AC000       0.042   1.343   0.434  0.00  0.00    -0.381 N 
ATOM     17  H18 ZIN AC000       0.884   1.824   0.461  0.00  0.00     0.157 HD
ATOM     18  H19 ZIN AC000      -0.793   1.821   0.558  0.00  0.00     0.157 HD
ENDBRANCH   1  16
BRANCH   3  19
ATOM     19  N5  ZIN AC000      -2.253  -2.751   0.186  0.00  0.00    -0.231 N 
ATOM     20  H20 ZIN AC000      -3.083  -2.301   0.411  0.00  0.00     0.174 HD
ATOM     21  H21 ZIN AC000      -2.247  -3.708   0.029  0.00  0.00     0.174 HD
ENDBRANCH   3  19
TORSDOF 3
