REMARK  9 active torsions:
REMARK  status: ('A' for Active; 'I' for Inactive)
REMARK    1  A    between atoms: C2_2  and  C3_3 
REMARK    2  A    between atoms: C3_3  and  O5_5 
REMARK    3  A    between atoms: O5_5  and  C6_6 
REMARK    4  A    between atoms: C6_6  and  C7_7 
REMARK    5  A    between atoms: C7_7  and  C9_9 
REMARK    6  A    between atoms: C9_9  and  O10_10 
REMARK    7  A    between atoms: O10_10  and  C11_11 
REMARK    8  A    between atoms: C11_11  and  C13_13 
REMARK    9  A    between atoms: C35_32  and  O37_33 
ROOT
ATOM      1  C9  ZIN AC000       3.876  -4.237   3.075  0.00  0.00     0.144 C 
ATOM      2  C15 ZIN AC000       2.712  -4.319   4.094  0.00  0.00     0.026 C 
ATOM      3  C17 ZIN AC000       1.481  -3.596   3.544  0.00  0.00     0.013 C 
ATOM      4  C18 ZIN AC000       2.403  -5.829   4.286  0.00  0.00     0.013 C 
ATOM      5  C19 ZIN AC000       3.724  -6.501   3.896  0.00  0.00     0.004 C 
ATOM      6  C21 ZIN AC000       3.626  -7.958   3.479  0.00  0.00     0.018 C 
ATOM      7  C23 ZIN AC000       3.121  -8.801   4.651  0.00  0.00     0.011 C 
ATOM      8  C24 ZIN AC000       2.988 -10.264   4.215  0.00  0.00     0.036 C 
ATOM      9  C25 ZIN AC000       4.328 -10.715   3.665  0.00  0.00    -0.062 A 
ATOM     10  C26 ZIN AC000       4.873 -11.828   4.134  0.00  0.00     0.058 A 
ATOM     11  C27 ZIN AC000       6.181 -12.287   3.641  0.00  0.00     0.172 A 
ATOM     12  O28 ZIN AC000       6.667 -13.329   4.040  0.00  0.00    -0.289 OA
ATOM     13  C29 ZIN AC000       6.890 -11.456   2.653  0.00  0.00     0.052 A 
ATOM     14  C30 ZIN AC000       6.323 -10.351   2.193  0.00  0.00    -0.007 A 
ATOM     15  C31 ZIN AC000       4.974  -9.871   2.606  0.00  0.00     0.022 A 
ATOM     16  C32 ZIN AC000       4.070  -9.898   1.372  0.00  0.00     0.027 C 
ATOM     17  C33 ZIN AC000       5.034  -8.411   3.061  0.00  0.00     0.081 C 
ATOM     18 Cl34 ZIN AC000       6.125  -8.279   4.490  0.00  0.00    -0.115 Cl
ATOM     19  C35 ZIN AC000       5.608  -7.555   1.935  0.00  0.00     0.144 C 
ATOM     20  C38 ZIN AC000       5.577  -6.059   2.288  0.00  0.00     0.046 C 
ATOM     21  C39 ZIN AC000       4.141  -5.677   2.648  0.00  0.00     0.002 C 
ATOM     22  C40 ZIN AC000       3.197  -6.074   1.511  0.00  0.00     0.019 C 
ENDROOT
BRANCH   1  23
ATOM     23  C7  ZIN AC000       3.470  -3.406   1.885  0.00  0.00     0.187 C 
ATOM     24  O8  ZIN AC000       2.483  -3.698   1.253  0.00  0.00    -0.292 OA
BRANCH  23  25
ATOM     25  C6  ZIN AC000       4.296  -2.211   1.483  0.00  0.00     0.260 C 
BRANCH  25  26
ATOM     26  O5  ZIN AC000       3.740  -1.622   0.278  0.00  0.00    -0.314 OA
BRANCH  26  27
ATOM     27  C3  ZIN AC000       4.364  -0.541  -0.215  0.00  0.00     0.258 C 
ATOM     28  O4  ZIN AC000       5.342  -0.101   0.342  0.00  0.00    -0.265 OA
BRANCH  27  29
ATOM     29  C2  ZIN AC000       3.845   0.125  -1.464  0.00  0.00     0.106 C 
ATOM     30  C1  ZIN AC000       4.731   1.324  -1.808  0.00  0.00     0.015 C 
ENDBRANCH  27  29
ENDBRANCH  26  27
ENDBRANCH  25  26
ENDBRANCH  23  25
ENDBRANCH   1  23
BRANCH   1  31
ATOM     31  O10 ZIN AC000       5.057  -3.672   3.702  0.00  0.00    -0.301 OA
BRANCH  31  32
ATOM     32  C11 ZIN AC000       4.926  -2.464   4.271  0.00  0.00     0.259 C 
ATOM     33  O12 ZIN AC000       3.855  -1.905   4.263  0.00  0.00    -0.265 OA
BRANCH  32  34
ATOM     34  C13 ZIN AC000       6.116  -1.804   4.920  0.00  0.00     0.106 C 
ATOM     35  C14 ZIN AC000       5.699  -0.445   5.487  0.00  0.00     0.015 C 
ENDBRANCH  32  34
ENDBRANCH  31  32
ENDBRANCH   1  31
BRANCH  19  36
ATOM     36  O37 ZIN AC000       4.840  -7.769   0.749  0.00  0.00    -0.394 OA
ATOM     37  H68 ZIN AC000       5.144  -7.258  -0.014  0.00  0.00     0.210 HD
ENDBRANCH  19  36
TORSDOF 9
