REMARK  3 active torsions:
REMARK  status: ('A' for Active; 'I' for Inactive)
REMARK    1  A    between atoms: C2_2  and  N4_4 
REMARK    2  A    between atoms: C2_2  and  C8_8 
REMARK    3  A    between atoms: C8_8  and  C9_9 
ROOT
ATOM      1  C1  ZIN AC000      -0.019   1.526   0.010  0.00  0.00     0.046 C 
ATOM      2  C2  ZIN AC000       0.002  -0.004   0.002  0.00  0.00     0.120 C 
ATOM      3  C3  ZIN AC000       0.742  -0.511   1.242  0.00  0.00     0.046 C 
ENDROOT
BRANCH   2   4
ATOM      4  N4  ZIN AC000      -1.376  -0.512   0.012  0.00  0.00    -0.071 N 
ATOM      5  H5  ZIN AC000      -1.864  -0.178  -0.805  0.00  0.00     0.275 HD
ATOM      6  H6  ZIN AC000      -1.362  -1.521   0.007  0.00  0.00     0.275 HD
ATOM      7  H7  ZIN AC000      -1.848  -0.187   0.843  0.00  0.00     0.275 HD
ENDBRANCH   2   4
BRANCH   2   8
ATOM      8  C8  ZIN AC000       0.718  -0.497  -1.257  0.00  0.00     0.076 C 
BRANCH   8   9
ATOM      9  C9  ZIN AC000       0.632  -2.000  -1.327  0.00  0.00    -0.056 A 
ATOM     10  C14 ZIN AC000      -0.431  -2.602  -1.976  0.00  0.00     0.007 A 
ATOM     11  C13 ZIN AC000      -0.508  -3.980  -2.045  0.00  0.00     0.001 A 
ATOM     12  C12 ZIN AC000       0.473  -4.757  -1.457  0.00  0.00     0.000 A 
ATOM     13  C11 ZIN AC000       1.532  -4.156  -0.804  0.00  0.00     0.001 A 
ATOM     14  C10 ZIN AC000       1.612  -2.778  -0.739  0.00  0.00     0.007 A 
ENDBRANCH   8   9
ENDBRANCH   2   8
TORSDOF 3
