REMARK  7 active torsions:
REMARK  status: ('A' for Active; 'I' for Inactive)
REMARK    1  A    between atoms: C2_2  and  C3_3 
REMARK    2  A    between atoms: C3_3  and  C4_4 
REMARK    3  A    between atoms: C4_4  and  N5_5 
REMARK    4  A    between atoms: N5_5  and  C6_6 
REMARK    5  A    between atoms: C6_6  and  O7_7 
REMARK    6  A    between atoms: N8_8  and  S9_9 
REMARK    7  A    between atoms: S9_9  and  C12_12 
ROOT
ATOM      1  C6  ZIN AC000       1.617  -3.876   2.629  0.00  0.00     0.250 C 
ATOM      2  N8  ZIN AC000       2.246  -4.307   3.683  0.00  0.00    -0.117 NA
ENDROOT
BRANCH   2   3
ATOM      3  S9  ZIN AC000       2.422  -5.934   3.934  0.00  0.00     0.286 S 
ATOM      4  O10 ZIN AC000       1.118  -6.447   4.169  0.00  0.00    -0.198 OA
ATOM      5  O11 ZIN AC000       3.270  -6.411   2.899  0.00  0.00    -0.198 OA
BRANCH   3   6
ATOM      6  C12 ZIN AC000       3.314  -6.135   5.440  0.00  0.00     0.081 A 
ATOM      7  C18 ZIN AC000       2.634  -6.232   6.639  0.00  0.00     0.026 A 
ATOM      8  C17 ZIN AC000       3.333  -6.394   7.821  0.00  0.00     0.008 A 
ATOM      9  C15 ZIN AC000       4.714  -6.451   7.803  0.00  0.00    -0.062 A 
ATOM     10  C14 ZIN AC000       5.396  -6.349   6.605  0.00  0.00     0.008 A 
ATOM     11  C16 ZIN AC000       5.477  -6.624   9.091  0.00  0.00     0.048 C 
ATOM     12  C13 ZIN AC000       4.696  -6.191   5.423  0.00  0.00     0.026 A 
ENDBRANCH   3   6
ENDBRANCH   2   3
BRANCH   1  13
ATOM     13  N5  ZIN AC000       1.471  -2.526   2.420  0.00  0.00    -0.354 N 
ATOM     14  H28 ZIN AC000       1.837  -1.894   3.058  0.00  0.00     0.163 HD
BRANCH  13  15
ATOM     15  C4  ZIN AC000       0.763  -2.041   1.233  0.00  0.00     0.123 C 
BRANCH  15  16
ATOM     16  C3  ZIN AC000       0.742  -0.511   1.242  0.00  0.00     0.019 C 
BRANCH  16  17
ATOM     17  C2  ZIN AC000       0.002  -0.004   0.002  0.00  0.00    -0.003 C 
ATOM     18  C1  ZIN AC000      -0.019   1.526   0.010  0.00  0.00     0.005 C 
ENDBRANCH  16  17
ENDBRANCH  15  16
ENDBRANCH  13  15
ENDBRANCH   1  13
BRANCH   1  19
ATOM     19  O7  ZIN AC000       1.107  -4.756   1.740  0.00  0.00    -0.331 OA
ATOM     20  H29 ZIN AC000       1.260  -5.682   1.971  0.00  0.00     0.221 HD
ENDBRANCH   1  19
TORSDOF 7
