REMARK  10 active torsions:
REMARK  status: ('A' for Active; 'I' for Inactive)
REMARK    1  A    between atoms: C2_2  and  C4_4 
REMARK    2  A    between atoms: C4_4  and  C5_5 
REMARK    3  A    between atoms: C5_5  and  O7_6 
REMARK    4  A    between atoms: C5_5  and  C8_7 
REMARK    5  A    between atoms: C8_7  and  C9_8 
REMARK    6  A    between atoms: C9_8  and  O11_9 
REMARK    7  A    between atoms: C9_8  and  C12_10 
REMARK    8  A    between atoms: C13_11  and  C14_12 
REMARK    9  A    between atoms: C15_13  and  C16_14 
REMARK   10  A    between atoms: C26_24  and  C27_25 
ROOT
ATOM      1  C14 ZIN AC000      -8.560   1.928  -0.101  0.00  0.00     0.001 A 
ATOM      2  C15 ZIN AC000      -9.184   2.513  -1.214  0.00  0.00     0.050 A 
ATOM      3  N19 ZIN AC000     -10.358   3.084  -1.123  0.00  0.00    -0.251 NA
ATOM      4  C20 ZIN AC000     -11.031   3.143   0.033  0.00  0.00     0.068 A 
ATOM      5  C21 ZIN AC000     -12.291   3.761   0.100  0.00  0.00     0.032 A 
ATOM      6  C22 ZIN AC000     -12.959   3.809   1.286  0.00  0.00     0.002 A 
ATOM      7  C23 ZIN AC000     -12.412   3.254   2.441  0.00  0.00     0.001 A 
ATOM      8  C24 ZIN AC000     -11.193   2.646   2.413  0.00  0.00     0.014 A 
ATOM      9  C25 ZIN AC000     -10.479   2.579   1.208  0.00  0.00     0.005 A 
ATOM     10  C26 ZIN AC000      -9.212   1.949   1.140  0.00  0.00    -0.001 A 
ENDROOT
BRANCH   1  11
ATOM     11  C13 ZIN AC000      -7.236   1.292  -0.237  0.00  0.00     0.013 C 
ATOM     12  C12 ZIN AC000      -7.075   0.016   0.094  0.00  0.00     0.006 C 
BRANCH  12  13
ATOM     13  C9  ZIN AC000      -5.750  -0.662  -0.142  0.00  0.00     0.143 C 
BRANCH  13  14
ATOM     14  C8  ZIN AC000      -5.247  -1.269   1.169  0.00  0.00     0.068 C 
BRANCH  14  15
ATOM     15  C5  ZIN AC000      -3.966  -2.063   0.905  0.00  0.00     0.130 C 
BRANCH  15  16
ATOM     16  C4  ZIN AC000      -3.532  -2.772   2.189  0.00  0.00     0.144 C 
BRANCH  16  17
ATOM     17  C2  ZIN AC000      -2.343  -3.651   1.900  0.00  0.00     0.175 C 
ATOM     18  O1  ZIN AC000      -1.885  -3.706   0.771  0.00  0.00    -0.648 OA
ATOM     19  O3  ZIN AC000      -1.835  -4.304   2.796  0.00  0.00    -0.648 OA
ENDBRANCH  16  17
ENDBRANCH  15  16
BRANCH  15  20
ATOM     20  O7  ZIN AC000      -2.933  -1.173   0.479  0.00  0.00    -0.395 OA
ATOM     21  H36 ZIN AC000      -2.715  -0.487   1.124  0.00  0.00     0.210 HD
ENDBRANCH  15  20
ENDBRANCH  14  15
ENDBRANCH  13  14
BRANCH  13  22
ATOM     22  O11 ZIN AC000      -4.803   0.295  -0.619  0.00  0.00    -0.392 OA
ATOM     23  H39 ZIN AC000      -4.643   1.028  -0.008  0.00  0.00     0.210 HD
ENDBRANCH  13  22
ENDBRANCH  12  13
ENDBRANCH   1  11
BRANCH  10  24
ATOM     24  C27 ZIN AC000      -8.595   1.340   2.338  0.00  0.00    -0.024 A 
ATOM     25  C33 ZIN AC000      -9.165   0.205   2.919  0.00  0.00     0.015 A 
ATOM     26  C32 ZIN AC000      -8.582  -0.362   4.032  0.00  0.00     0.043 A 
ATOM     27  C30 ZIN AC000      -7.440   0.198   4.582  0.00  0.00     0.116 A 
ATOM     28  C29 ZIN AC000      -6.873   1.328   4.012  0.00  0.00     0.043 A 
ATOM     29  F31 ZIN AC000      -6.877  -0.358   5.676  0.00  0.00    -0.206 F 
ATOM     30  C28 ZIN AC000      -7.445   1.900   2.895  0.00  0.00     0.015 A 
ENDBRANCH  10  24
BRANCH   2  31
ATOM     31  C16 ZIN AC000      -8.483   2.484  -2.548  0.00  0.00     0.038 A 
ATOM     32  C18 ZIN AC000      -8.158   3.827  -3.205  0.00  0.00     0.011 A 
ATOM     33  C17 ZIN AC000      -9.275   2.948  -3.772  0.00  0.00     0.011 A 
ENDBRANCH   2  31
TORSDOF 10
