REMARK  0 active torsions:
REMARK  status: ('A' for Active; 'I' for Inactive)
ROOT
ATOM      1  C1  ZIN AC000      -0.018   1.465   0.010  0.00  0.00     0.309 C 
ATOM      2  N2  ZIN AC000       0.002  -0.004   0.002  0.00  0.00     0.084 N 
ATOM      3  C3  ZIN AC000      -1.358  -0.548  -0.100  0.00  0.00     0.276 C 
ATOM      4  C4  ZIN AC000      -1.284  -2.059  -0.350  0.00  0.00     0.065 C 
ATOM      5  C5  ZIN AC000      -0.423  -2.677   0.731  0.00  0.00    -0.065 C 
ATOM      6  C6  ZIN AC000      -0.835  -3.756   1.413  0.00  0.00    -0.011 C 
ATOM      7  C7  ZIN AC000      -2.146  -4.383   1.125  0.00  0.00    -0.015 A 
ATOM      8  C8  ZIN AC000      -2.423  -4.862  -0.151  0.00  0.00     0.013 A 
ATOM      9  C9  ZIN AC000      -3.627  -5.487  -0.407  0.00  0.00     0.001 A 
ATOM     10  C10 ZIN AC000      -4.562  -5.644   0.604  0.00  0.00     0.001 A 
ATOM     11  C11 ZIN AC000      -4.313  -5.159   1.870  0.00  0.00     0.012 A 
ATOM     12  C12 ZIN AC000      -3.108  -4.500   2.145  0.00  0.00    -0.025 A 
ATOM     13  C13 ZIN AC000      -2.892  -3.912   3.464  0.00  0.00     0.013 C 
ATOM     14  C14 ZIN AC000      -1.777  -3.897   4.162  0.00  0.00     0.013 C 
ATOM     15  C15 ZIN AC000      -0.485  -4.466   3.788  0.00  0.00    -0.025 A 
ATOM     16  C16 ZIN AC000       0.287  -5.127   4.751  0.00  0.00     0.012 A 
ATOM     17  C17 ZIN AC000       1.527  -5.626   4.420  0.00  0.00     0.001 A 
ATOM     18  C18 ZIN AC000       2.026  -5.478   3.136  0.00  0.00     0.001 A 
ATOM     19  C19 ZIN AC000       1.274  -4.844   2.166  0.00  0.00     0.013 A 
ATOM     20  C20 ZIN AC000       0.012  -4.357   2.470  0.00  0.00    -0.015 A 
ATOM     21  C21 ZIN AC000       0.919  -2.037   1.016  0.00  0.00     0.065 C 
ATOM     22  C22 ZIN AC000       0.706  -0.527   1.180  0.00  0.00     0.276 C 
ENDROOT
TORSDOF 0
