REMARK  17 active torsions:
REMARK  status: ('A' for Active; 'I' for Inactive)
REMARK    1  A    between atoms: C2_2  and  O4_4 
REMARK    2  A    between atoms: O4_4  and  C5_5 
REMARK    3  A    between atoms: C5_5  and  C7_7 
REMARK    4  A    between atoms: C7_7  and  C8_8 
REMARK    5  A    between atoms: C8_8  and  C9_9 
REMARK    6  A    between atoms: C9_9  and  C10_10 
REMARK    7  A    between atoms: C11_11  and  C12_12 
REMARK    8  A    between atoms: C12_12  and  C13_13 
REMARK    9  A    between atoms: C15_14  and  C17_15 
REMARK   10  A    between atoms: C17_15  and  C18_16 
REMARK   11  A    between atoms: C18_16  and  C19_17 
REMARK   12  A    between atoms: C19_17  and  O21_18 
REMARK   13  A    between atoms: C19_17  and  C22_19 
REMARK   14  A    between atoms: C22_19  and  C23_20 
REMARK   15  A    between atoms: C23_20  and  C24_21 
REMARK   16  A    between atoms: C30_27  and  O32_28 
REMARK   17  A    between atoms: C34_30  and  O36_31 
ROOT
ATOM      1  C13 ZIN AC000      -6.680  -7.045  -0.436  0.00  0.00     0.024 C 
ATOM      2  C15 ZIN AC000      -7.489  -6.987   0.871  0.00  0.00     0.021 C 
ATOM      3  C30 ZIN AC000      -7.896  -8.437   1.203  0.00  0.00     0.125 C 
ATOM      4  C33 ZIN AC000      -6.842  -9.304   0.470  0.00  0.00     0.064 C 
ATOM      5  C34 ZIN AC000      -6.623  -8.529  -0.855  0.00  0.00     0.125 C 
ENDROOT
BRANCH   2   6
ATOM      6  C17 ZIN AC000      -8.737  -6.123   0.677  0.00  0.00     0.010 C 
BRANCH   6   7
ATOM      7  C18 ZIN AC000      -9.465  -5.971   2.014  0.00  0.00     0.032 C 
BRANCH   7   8
ATOM      8  C19 ZIN AC000     -10.713  -5.108   1.820  0.00  0.00     0.118 C 
BRANCH   8   9
ATOM      9  O21 ZIN AC000     -11.634  -5.786   0.963  0.00  0.00    -0.396 OA
ATOM     10  H58 ZIN AC000     -11.929  -6.642   1.303  0.00  0.00     0.210 HD
ENDBRANCH   8   9
BRANCH   8  11
ATOM     11  C22 ZIN AC000     -11.373  -4.852   3.177  0.00  0.00     0.036 C 
BRANCH  11  12
ATOM     12  C23 ZIN AC000     -12.547  -3.888   2.999  0.00  0.00     0.041 C 
BRANCH  12  13
ATOM     13  C24 ZIN AC000     -13.197  -3.636   4.336  0.00  0.00    -0.058 A 
ATOM     14  C29 ZIN AC000     -12.761  -2.593   5.131  0.00  0.00     0.007 A 
ATOM     15  C28 ZIN AC000     -13.359  -2.359   6.355  0.00  0.00     0.001 A 
ATOM     16  C27 ZIN AC000     -14.388  -3.175   6.788  0.00  0.00     0.000 A 
ATOM     17  C26 ZIN AC000     -14.821  -4.221   5.995  0.00  0.00     0.001 A 
ATOM     18  C25 ZIN AC000     -14.225  -4.452   4.769  0.00  0.00     0.007 A 
ENDBRANCH  12  13
ENDBRANCH  11  12
ENDBRANCH   8  11
ENDBRANCH   7   8
ENDBRANCH   6   7
ENDBRANCH   2   6
BRANCH   1  19
ATOM     19  C12 ZIN AC000      -5.266  -6.512  -0.202  0.00  0.00     0.034 C 
BRANCH  19  20
ATOM     20  C11 ZIN AC000      -5.329  -5.038   0.106  0.00  0.00    -0.030 C 
ATOM     21  C10 ZIN AC000      -4.761  -4.570   1.190  0.00  0.00    -0.031 C 
BRANCH  21  22
ATOM     22  C9  ZIN AC000      -3.904  -5.471   2.040  0.00  0.00     0.027 C 
BRANCH  22  23
ATOM     23  C8  ZIN AC000      -2.543  -4.810   2.272  0.00  0.00     0.013 C 
BRANCH  23  24
ATOM     24  C7  ZIN AC000      -1.672  -5.725   3.135  0.00  0.00     0.111 C 
BRANCH  24  25
ATOM     25  C5  ZIN AC000      -0.332  -5.075   3.363  0.00  0.00     0.259 C 
ATOM     26  O6  ZIN AC000      -0.098  -3.990   2.885  0.00  0.00    -0.265 OA
BRANCH  25  27
ATOM     27  O4  ZIN AC000       0.601  -5.700   4.099  0.00  0.00    -0.317 OA
BRANCH  27  28
ATOM     28  C2  ZIN AC000       1.868  -5.014   4.277  0.00  0.00     0.123 C 
ATOM     29  C1  ZIN AC000       2.477  -5.408   5.624  0.00  0.00     0.040 C 
ATOM     30  C3  ZIN AC000       2.825  -5.409   3.150  0.00  0.00     0.040 C 
ENDBRANCH  27  28
ENDBRANCH  25  27
ENDBRANCH  24  25
ENDBRANCH  23  24
ENDBRANCH  22  23
ENDBRANCH  21  22
ENDBRANCH  19  20
ENDBRANCH   1  19
BRANCH   3  31
ATOM     31  O32 ZIN AC000      -7.838  -8.662   2.613  0.00  0.00    -0.395 OA
ATOM     32  H68 ZIN AC000      -8.084  -9.559   2.878  0.00  0.00     0.210 HD
ENDBRANCH   3  31
BRANCH   5  33
ATOM     33  O36 ZIN AC000      -5.347  -8.845  -1.414  0.00  0.00    -0.395 OA
ATOM     34  H71 ZIN AC000      -5.237  -9.779  -1.641  0.00  0.00     0.210 HD
ENDBRANCH   5  33
TORSDOF 17
