REMARK  3 active torsions:
REMARK  status: ('A' for Active; 'I' for Inactive)
REMARK    1  A    between atoms: N2_2  and  O4_4 
REMARK    2  A    between atoms: O4_4  and  C5_5 
REMARK    3  A    between atoms: C11_9  and  O13_10 
ROOT
ATOM      1  C5  <0> d          -2.395   1.050   0.019  0.00  0.00     0.214 C 
ATOM      2  C7  <0> d          -2.826   0.710  -1.423  0.00  0.00     0.205 C 
ATOM      3  O8  <0> d          -4.257   0.720  -1.458  0.00  0.00    -0.378 OA
ATOM      4  C9  <0> d          -4.789   1.043  -0.166  0.00  0.00     0.183 C 
ATOM      5  C11 <0> d          -5.861   2.145  -0.333  0.00  0.00     0.173 C 
ATOM      6  C14 <0> d          -5.086   3.466  -0.173  0.00  0.00     0.202 C 
ATOM      7  O15 <0> d          -3.700   3.132   0.003  0.00  0.00    -0.378 OA
ATOM      8  C16 <0> d          -3.635   1.790   0.581  0.00  0.00     0.186 C 
ENDROOT
BRANCH   1   9
ATOM      9  O4  <0> d          -1.250   1.905   0.018  0.00  0.00    -0.211 OA
BRANCH   9  10
ATOM     10  N2  <0> d          -0.014   1.214   0.009  0.00  0.00     0.005 N 
ATOM     11  O1  <0> d           0.002  -0.004   0.002  0.00  0.00    -0.511 OA
ATOM     12  O3  <0> d           1.032   1.837   0.002  0.00  0.00    -0.511 OA
ENDBRANCH   9  10
ENDBRANCH   1   9
BRANCH   5  13
ATOM     13  O13 <0> d          -6.861   2.025   0.681  0.00  0.00    -0.391 OA
ATOM     14  H20 <0> d          -7.559   2.691   0.625  0.00  0.00     0.210 HD
ENDBRANCH   5  13
TORSDOF 3
