REMARK  3 active torsions:
REMARK  status: ('A' for Active; 'I' for Inactive)
REMARK    1  A    between atoms: C2_2  and  C4_4 
REMARK    2  A    between atoms: C4_4  and  N6_5 
REMARK    3  A    between atoms: C4_4  and  C10_9 
ROOT
ATOM      1  C4  ZIN AC000      -1.433  -0.534   0.013  0.00  0.00     0.286 C 
ENDROOT
BRANCH   1   2
ATOM      2  C2  ZIN AC000       0.002  -0.004   0.002  0.00  0.00     0.018 C 
ATOM      3  C1  ZIN AC000      -0.019   1.526   0.010  0.00  0.00     0.012 C 
ATOM      4  C3  ZIN AC000       0.742  -0.511   1.242  0.00  0.00     0.012 C 
ENDBRANCH   1   2
BRANCH   1   5
ATOM      5  N6  ZIN AC000      -2.121  -0.060   1.222  0.00  0.00    -0.065 N 
ATOM      6  H7  ZIN AC000      -3.067  -0.409   1.229  0.00  0.00     0.275 HD
ATOM      7  H8  ZIN AC000      -1.633  -0.394   2.039  0.00  0.00     0.275 HD
ATOM      8  H9  ZIN AC000      -2.135   0.949   1.227  0.00  0.00     0.275 HD
ENDBRANCH   1   5
BRANCH   1   9
ATOM      9  C10 ZIN AC000      -1.413  -2.041   0.005  0.00  0.00     0.204 C 
ATOM     10  O11 ZIN AC000      -1.395  -2.656   1.057  0.00  0.00    -0.646 OA
ATOM     11  O12 ZIN AC000      -1.415  -2.644  -1.055  0.00  0.00    -0.646 OA
ENDBRANCH   1   9
TORSDOF 3
