REMARK  7 active torsions:
REMARK  status: ('A' for Active; 'I' for Inactive)
REMARK    1  A    between atoms: C14_12  and  O15_13 
REMARK    2  A    between atoms: O15_13  and  C16_14 
REMARK    3  A    between atoms: C23_20  and  O25_21 
REMARK    4  A    between atoms: O25_21  and  C26_22 
REMARK    5  A    between atoms: C26_22  and  C28_24 
REMARK    6  A    between atoms: C36_31  and  O38_32 
REMARK    7  A    between atoms: O38_32  and  C39_33 
ROOT
ATOM      1  C1  ZIN AC000      -0.016   1.305   0.009  0.00  0.00     0.017 C 
ATOM      2  C2  ZIN AC000       0.002  -0.004   0.002  0.00  0.00    -0.059 C 
ATOM      3  C3  ZIN AC000      -1.304  -0.758   0.021  0.00  0.00     0.036 C 
ATOM      4  C4  ZIN AC000      -1.276  -1.804   1.135  0.00  0.00     0.010 C 
ATOM      5  C5  ZIN AC000      -1.812  -3.142   0.649  0.00  0.00     0.002 A 
ATOM      6  C7  ZIN AC000      -1.033  -3.957  -0.386  0.00  0.00     0.022 A 
ATOM      7  C9  ZIN AC000       0.163  -3.327  -1.015  0.00  0.00    -0.011 C 
ATOM      8  C10 ZIN AC000       1.237  -3.905  -1.502  0.00  0.00    -0.016 C 
ATOM      9  C11 ZIN AC000       1.380  -5.416  -1.481  0.00  0.00     0.052 C 
ATOM     10  C12 ZIN AC000       2.340  -3.152  -2.080  0.00  0.00     0.190 C 
ATOM     11  O13 ZIN AC000       2.862  -3.618  -3.078  0.00  0.00    -0.289 OA
ATOM     12  C14 ZIN AC000       2.943  -1.905  -1.535  0.00  0.00     0.144 C 
ATOM     13  C19 ZIN AC000       4.047  -1.393  -2.485  0.00  0.00     0.054 C 
ATOM     14  C20 ZIN AC000       3.738   0.081  -2.775  0.00  0.00     0.015 C 
ATOM     15  C22 ZIN AC000       4.967   0.936  -2.459  0.00  0.00     0.012 C 
ATOM     16  C23 ZIN AC000       2.567   0.509  -1.871  0.00  0.00     0.146 C 
ATOM     17  C34 ZIN AC000       1.897  -0.790  -1.414  0.00  0.00     0.092 C 
ATOM     18  C36 ZIN AC000       1.319  -0.734  -0.015  0.00  0.00     0.170 C 
ATOM     19  C42 ZIN AC000      -1.093  -4.426   1.062  0.00  0.00    -0.036 A 
ATOM     20  C43 ZIN AC000       0.175  -4.332   1.907  0.00  0.00     0.016 C 
ATOM     21  C44 ZIN AC000      -1.977  -5.644   1.364  0.00  0.00     0.016 C 
ENDROOT
BRANCH  16  22
ATOM     22  O25 ZIN AC000       3.080   1.302  -0.775  0.00  0.00    -0.311 OA
BRANCH  22  23
ATOM     23  C26 ZIN AC000       3.128   2.636  -0.955  0.00  0.00     0.293 C 
ATOM     24  O27 ZIN AC000       2.750   3.121  -2.002  0.00  0.00    -0.259 OA
BRANCH  23  25
ATOM     25  C28 ZIN AC000       3.640   3.508   0.122  0.00  0.00     0.039 A 
ATOM     26  C33 ZIN AC000       3.691   4.891  -0.061  0.00  0.00     0.017 A 
ATOM     27  C32 ZIN AC000       4.165   5.701   0.951  0.00  0.00     0.001 A 
ATOM     28  C31 ZIN AC000       4.600   5.144   2.140  0.00  0.00     0.000 A 
ATOM     29  C30 ZIN AC000       4.557   3.773   2.326  0.00  0.00     0.001 A 
ATOM     30  C29 ZIN AC000       4.080   2.953   1.325  0.00  0.00     0.017 A 
ENDBRANCH  23  25
ENDBRANCH  22  23
ENDBRANCH  16  22
BRANCH  12  31
ATOM     31  O15 ZIN AC000       3.548  -2.151  -0.236  0.00  0.00    -0.301 OA
BRANCH  31  32
ATOM     32  C16 ZIN AC000       4.525  -3.071  -0.183  0.00  0.00     0.256 C 
ATOM     33  C17 ZIN AC000       5.199  -3.380   1.129  0.00  0.00     0.126 C 
ATOM     34  O18 ZIN AC000       4.863  -3.651  -1.188  0.00  0.00    -0.266 OA
ENDBRANCH  31  32
ENDBRANCH  12  31
BRANCH  18  35
ATOM     35  O38 ZIN AC000       2.230  -0.125   0.931  0.00  0.00    -0.311 OA
BRANCH  35  36
ATOM     36  C39 ZIN AC000       2.156  -0.542   2.204  0.00  0.00     0.255 C 
ATOM     37  C40 ZIN AC000       3.073   0.046   3.245  0.00  0.00     0.126 C 
ATOM     38  O41 ZIN AC000       1.353  -1.390   2.516  0.00  0.00    -0.266 OA
ENDBRANCH  35  36
ENDBRANCH  18  35
TORSDOF 7
