REMARK  4 active torsions:
REMARK  status: ('A' for Active; 'I' for Inactive)
REMARK    1  A    between atoms: N1_1  and  C5_5 
REMARK    2  A    between atoms: C5_5  and  C7_6 
REMARK    3  A    between atoms: C5_5  and  C17_16 
REMARK    4  A    between atoms: C7_6  and  C8_7 
ROOT
ATOM      1  C8  <0> d          -2.899   1.546   0.074  0.00  0.00    -0.028 A 
ATOM      2  C9  <0> d          -3.675   2.641   0.111  0.00  0.00     0.096 A 
ATOM      3  N10 <0> d          -4.206   2.879  -1.127  0.00  0.00    -0.365 N 
ATOM      4  C11 <0> d          -3.774   1.919  -2.014  0.00  0.00     0.042 A 
ATOM      5  C12 <0> d          -4.005   1.692  -3.367  0.00  0.00     0.030 A 
ATOM      6  C13 <0> d          -3.413   0.615  -3.991  0.00  0.00     0.002 A 
ATOM      7  C14 <0> d          -2.587  -0.247  -3.283  0.00  0.00     0.001 A 
ATOM      8  C15 <0> d          -2.347  -0.043  -1.953  0.00  0.00     0.014 A 
ATOM      9  C16 <0> d          -2.931   1.045  -1.303  0.00  0.00    -0.002 A 
ATOM     10  H23 <0> d          -4.799   3.614  -1.347  0.00  0.00     0.165 HD
ENDROOT
BRANCH   1  11
ATOM     11  C7  <0> d          -2.135   0.949   1.227  0.00  0.00     0.085 C 
BRANCH  11  12
ATOM     12  C5  <0> d          -0.699   1.479   1.216  0.00  0.00     0.287 C 
BRANCH  12  13
ATOM     13  N1  <0> d          -0.012   1.005   0.008  0.00  0.00    -0.065 N 
ATOM     14  H2  <0> d           0.002  -0.004   0.002  0.00  0.00     0.275 HD
ATOM     15  H3  <0> d           0.935   1.354   0.000  0.00  0.00     0.275 HD
ATOM     16  H4  <0> d          -0.500   1.339  -0.810  0.00  0.00     0.275 HD
ENDBRANCH  12  13
BRANCH  12  17
ATOM     17  C17 <0> d           0.030   0.979   2.437  0.00  0.00     0.204 C 
ATOM     18  O18 <0> d          -0.266   1.406   3.540  0.00  0.00    -0.646 OA
ATOM     19  O19 <0> d           0.915   0.149   2.322  0.00  0.00    -0.646 OA
ENDBRANCH  12  17
ENDBRANCH  11  12
ENDBRANCH   1  11
TORSDOF 4
