REMARK  4 active torsions:
REMARK  status: ('A' for Active; 'I' for Inactive)
REMARK    1  A    between atoms: C5_5  and  N6_6 
REMARK    2  A    between atoms: N9_9  and  C10_10 
REMARK    3  A    between atoms: C10_10  and  C11_11 
REMARK    4  A    between atoms: C11_11  and  O12_12 
ROOT
ATOM      1  C1  <0> d          -0.018   1.503   0.010  0.00  0.00     0.091 C 
ATOM      2  C2  <0> d           0.002  -0.004   0.002  0.00  0.00     0.103 A 
ATOM      3  N3  <0> d           0.008  -0.759  -1.063  0.00  0.00    -0.244 NA
ATOM      4  C4  <0> d           0.028  -2.047  -0.691  0.00  0.00     0.173 A 
ATOM      5  C5  <0> d           0.035  -2.093   0.655  0.00  0.00     0.195 A 
ATOM      6  N9  <0> d           0.023  -0.797   1.095  0.00  0.00    -0.313 N 
ENDROOT
BRANCH   6   7
ATOM      7  C10 <0> d           0.025  -0.353   2.491  0.00  0.00     0.158 C 
BRANCH   7   8
ATOM      8  C11 <0> d           1.468  -0.184   2.971  0.00  0.00     0.184 C 
BRANCH   8   9
ATOM      9  O12 <0> d           1.470   0.249   4.332  0.00  0.00    -0.399 OA
ATOM     10  H21 <0> d           2.354   0.377   4.703  0.00  0.00     0.209 HD
ENDBRANCH   8   9
ENDBRANCH   7   8
ENDBRANCH   6   7
BRANCH   5  11
ATOM     11  N6  <0> d           0.055  -3.311   1.496  0.00  0.00    -0.096 N 
ATOM     12  O7  <0> d           0.068  -4.411   0.975  0.00  0.00    -0.530 OA
ATOM     13  O8  <0> d           0.060  -3.212   2.710  0.00  0.00    -0.530 OA
ENDBRANCH   5  11
TORSDOF 4
