REMARK  12 active torsions:
REMARK  status: ('A' for Active; 'I' for Inactive)
REMARK    1  A    between atoms: N2_2  and  C3_3 
REMARK    2  A    between atoms: C6_6  and  C7_7 
REMARK    3  A    between atoms: C8_8  and  C9_9 
REMARK    4  A    between atoms: C12_12  and  O13_13 
REMARK    5  A    between atoms: O13_13  and  C14_14 
REMARK    6  A    between atoms: C14_14  and  C15_15 
REMARK    7  A    between atoms: C15_15  and  O16_16 
REMARK    8  A    between atoms: O16_16  and  C17_17 
REMARK    9  A    between atoms: C17_17  and  C18_18 
REMARK   10  A    between atoms: C18_18  and  O19_19 
REMARK   11  A    between atoms: O19_19  and  C20_20 
REMARK   12  A    between atoms: C20_20  and  C21_21 
ROOT
ATOM      1  C9  ZIN AC000      -6.091  -4.987   0.037  0.00  0.00    -0.036 A 
ATOM      2  C10 ZIN AC000      -7.312  -4.307   0.041  0.00  0.00     0.014 A 
ATOM      3  C11 ZIN AC000      -8.494  -5.017   0.048  0.00  0.00     0.037 A 
ATOM      4  C12 ZIN AC000      -8.472  -6.406   0.051  0.00  0.00     0.068 A 
ATOM      5  C23 ZIN AC000      -7.261  -7.086   0.048  0.00  0.00     0.037 A 
ATOM      6  C24 ZIN AC000      -6.075  -6.385   0.035  0.00  0.00     0.014 A 
ENDROOT
BRANCH   1   7
ATOM      7  C8  ZIN AC000      -4.825  -4.233   0.030  0.00  0.00     0.012 C 
ATOM      8  C7  ZIN AC000      -4.844  -2.890   0.032  0.00  0.00     0.012 C 
BRANCH   8   9
ATOM      9  C6  ZIN AC000      -3.578  -2.136   0.024  0.00  0.00    -0.036 A 
ATOM     10  C5  ZIN AC000      -3.595  -0.739   0.027  0.00  0.00     0.013 A 
ATOM     11  C4  ZIN AC000      -2.409  -0.037   0.019  0.00  0.00     0.030 A 
ATOM     12  C3  ZIN AC000      -1.197  -0.718   0.010  0.00  0.00     0.027 A 
ATOM     13  C26 ZIN AC000      -1.176  -2.109   0.002  0.00  0.00     0.030 A 
ATOM     14  C25 ZIN AC000      -2.357  -2.817   0.014  0.00  0.00     0.013 A 
BRANCH  12  15
ATOM     15  N2  ZIN AC000       0.002  -0.004   0.002  0.00  0.00    -0.394 N 
ATOM     16  C1  ZIN AC000      -0.018   1.461   0.010  0.00  0.00     0.146 C 
ATOM     17  H30 ZIN AC000       0.849  -0.478  -0.009  0.00  0.00     0.159 HD
ENDBRANCH  12  15
ENDBRANCH   8   9
ENDBRANCH   1   7
BRANCH   4  18
ATOM     18  O13 ZIN AC000      -9.640  -7.101   0.058  0.00  0.00    -0.349 OA
BRANCH  18  19
ATOM     19  C14 ZIN AC000      -9.545  -8.527   0.061  0.00  0.00     0.201 C 
BRANCH  19  20
ATOM     20  C15 ZIN AC000     -10.951  -9.131   0.069  0.00  0.00     0.194 C 
BRANCH  20  21
ATOM     21  O16 ZIN AC000     -11.618  -8.799  -1.151  0.00  0.00    -0.387 OA
BRANCH  21  22
ATOM     22  C17 ZIN AC000     -12.947  -9.318  -1.246  0.00  0.00     0.193 C 
BRANCH  22  23
ATOM     23  C18 ZIN AC000     -13.561  -8.903  -2.584  0.00  0.00     0.193 C 
BRANCH  23  24
ATOM     24  O19 ZIN AC000     -12.837  -9.518  -3.652  0.00  0.00    -0.387 OA
BRANCH  24  25
ATOM     25  C20 ZIN AC000     -13.333  -9.194  -4.953  0.00  0.00     0.199 C 
BRANCH  25  26
ATOM     26  C21 ZIN AC000     -12.487  -9.904  -6.012  0.00  0.00     0.248 C 
ATOM     27  F22 ZIN AC000     -12.650 -11.288  -5.888  0.00  0.00    -0.253 F 
ENDBRANCH  25  26
ENDBRANCH  24  25
ENDBRANCH  23  24
ENDBRANCH  22  23
ENDBRANCH  21  22
ENDBRANCH  20  21
ENDBRANCH  19  20
ENDBRANCH  18  19
ENDBRANCH   4  18
TORSDOF 12
