REMARK  2 active torsions:
REMARK  status: ('A' for Active; 'I' for Inactive)
REMARK    1  A    between atoms: N1_1  and  C2_2 
REMARK    2  A    between atoms: N10_10  and  C11_11 
ROOT
ATOM      1  C2  ZIN AC000       0.002  -0.004   0.002  0.00  0.00     0.042 A 
ATOM      2  C3  ZIN AC000      -1.195  -0.724   0.004  0.00  0.00     0.030 A 
ATOM      3  C4  ZIN AC000      -1.179  -2.102  -0.004  0.00  0.00     0.003 A 
ATOM      4  C5  ZIN AC000       0.024  -2.795  -0.013  0.00  0.00     0.018 A 
ATOM      5  C6  ZIN AC000       1.221  -2.101  -0.015  0.00  0.00     0.050 A 
ATOM      6  C7  ZIN AC000       1.216  -0.690  -0.013  0.00  0.00     0.074 A 
ATOM      7  C8  ZIN AC000       2.630  -0.280  -0.015  0.00  0.00     0.264 A 
ATOM      8  O9  ZIN AC000       3.035   0.866  -0.015  0.00  0.00    -0.267 OA
ATOM      9  N10 ZIN AC000       3.398  -1.383  -0.018  0.00  0.00    -0.266 N 
ATOM     10  C20 ZIN AC000       2.645  -2.498  -0.023  0.00  0.00     0.262 A 
ATOM     11  O21 ZIN AC000       3.064  -3.638  -0.027  0.00  0.00    -0.267 OA
ENDROOT
BRANCH   9  12
ATOM     12  C11 ZIN AC000       4.864  -1.373  -0.020  0.00  0.00     0.189 C 
ATOM     13  C18 ZIN AC000       5.370  -2.080  -1.249  0.00  0.00     0.247 C 
ATOM     14  N17 ZIN AC000       6.534  -2.749  -1.238  0.00  0.00    -0.296 N 
ATOM     15  O19 ZIN AC000       4.714  -2.047  -2.268  0.00  0.00    -0.271 OA
ATOM     16  C15 ZIN AC000       7.306  -2.837  -0.145  0.00  0.00     0.224 C 
ATOM     17  H31 ZIN AC000       6.828  -3.185  -2.053  0.00  0.00     0.171 HD
ATOM     18  C14 ZIN AC000       6.911  -2.172   1.147  0.00  0.00     0.106 C 
ATOM     19  O16 ZIN AC000       8.342  -3.464  -0.198  0.00  0.00    -0.273 OA
ATOM     20  C13 ZIN AC000       5.382  -2.097   1.227  0.00  0.00     0.045 C 
ENDBRANCH   9  12
BRANCH   1  21
ATOM     21  N1  ZIN AC000      -0.017   1.383   0.010  0.00  0.00    -0.398 N 
ATOM     22  H22 ZIN AC000       0.817   1.879   0.004  0.00  0.00     0.156 HD
ATOM     23  H23 ZIN AC000      -0.863   1.856   0.016  0.00  0.00     0.156 HD
ENDBRANCH   1  21
TORSDOF 2
