REMARK  5 active torsions:
REMARK  status: ('A' for Active; 'I' for Inactive)
REMARK    1  A    between atoms: C2_2  and  O4_4 
REMARK    2  A    between atoms: O4_4  and  C5_5 
REMARK    3  A    between atoms: C5_5  and  C6_6 
REMARK    4  A    between atoms: C6_6  and  C8_8 
REMARK    5  A    between atoms: C35_32  and  O37_33 
ROOT
ATOM      1  C8  ZIN AC000      -2.800  -4.135  -1.216  0.00  0.00     0.160 C 
ATOM      2  O9  ZIN AC000      -1.742  -4.864  -1.869  0.00  0.00    -0.333 OA
ATOM      3  C10 ZIN AC000      -0.959  -5.403  -0.794  0.00  0.00     0.166 C 
ATOM      4  C11 ZIN AC000      -0.127  -6.600  -1.276  0.00  0.00     0.068 C 
ATOM      5  C12 ZIN AC000       1.275  -5.997  -1.550  0.00  0.00     0.006 C 
ATOM      6  C13 ZIN AC000       1.431  -4.957  -0.412  0.00  0.00     0.006 C 
ATOM      7  C14 ZIN AC000       0.018  -4.357  -0.249  0.00  0.00     0.068 C 
ATOM      8  O15 ZIN AC000      -1.897  -5.806   0.212  0.00  0.00    -0.346 OA
ATOM      9  C16 ZIN AC000      -2.924  -4.791   0.191  0.00  0.00     0.168 C 
ATOM     10  C18 ZIN AC000      -4.302  -5.507   0.229  0.00  0.00     0.041 C 
ATOM     11  C19 ZIN AC000      -4.604  -5.761  -1.252  0.00  0.00     0.007 C 
ATOM     12  C21 ZIN AC000      -6.067  -5.967  -1.597  0.00  0.00     0.035 C 
ATOM     13  C23 ZIN AC000      -6.593  -7.226  -0.904  0.00  0.00     0.013 C 
ATOM     14  C24 ZIN AC000      -8.083  -7.401  -1.218  0.00  0.00     0.036 C 
ATOM     15  C25 ZIN AC000      -8.251  -7.410  -2.726  0.00  0.00    -0.061 A 
ATOM     16  C26 ZIN AC000      -8.931  -8.399  -3.289  0.00  0.00     0.058 A 
ATOM     17  C27 ZIN AC000      -9.098  -8.454  -4.750  0.00  0.00     0.172 A 
ATOM     18  O28 ZIN AC000      -9.757  -9.336  -5.268  0.00  0.00    -0.289 OA
ATOM     19  C29 ZIN AC000      -8.452  -7.415  -5.571  0.00  0.00     0.052 A 
ATOM     20  C30 ZIN AC000      -7.784  -6.434  -4.986  0.00  0.00    -0.006 A 
ATOM     21  C31 ZIN AC000      -7.638  -6.288  -3.510  0.00  0.00     0.036 A 
ATOM     22  C32 ZIN AC000      -8.340  -4.992  -3.097  0.00  0.00     0.028 C 
ATOM     23  C33 ZIN AC000      -6.167  -6.119  -3.123  0.00  0.00     0.147 C 
ATOM     24  F34 ZIN AC000      -5.456  -7.263  -3.504  0.00  0.00    -0.238 F 
ATOM     25  C35 ZIN AC000      -5.586  -4.918  -3.865  0.00  0.00     0.160 C 
ATOM     26  C38 ZIN AC000      -4.148  -4.614  -3.415  0.00  0.00     0.048 C 
ATOM     27  C39 ZIN AC000      -4.138  -4.393  -1.897  0.00  0.00     0.004 C 
ATOM     28  C40 ZIN AC000      -5.153  -3.310  -1.525  0.00  0.00     0.019 C 
ENDROOT
BRANCH   1  29
ATOM     29  C6  ZIN AC000      -2.493  -2.663  -1.126  0.00  0.00     0.188 C 
ATOM     30  O7  ZIN AC000      -2.853  -2.029  -0.163  0.00  0.00    -0.292 OA
BRANCH  29  31
ATOM     31  C5  ZIN AC000      -1.737  -1.981  -2.237  0.00  0.00     0.260 C 
BRANCH  31  32
ATOM     32  O4  ZIN AC000      -1.670  -0.555  -1.973  0.00  0.00    -0.314 OA
BRANCH  32  33
ATOM     33  C2  ZIN AC000      -1.025   0.202  -2.874  0.00  0.00     0.255 C 
ATOM     34  C1  ZIN AC000      -0.915   1.691  -2.667  0.00  0.00     0.126 C 
ATOM     35  O3  ZIN AC000      -0.532  -0.310  -3.852  0.00  0.00    -0.266 OA
ENDBRANCH  32  33
ENDBRANCH  31  32
ENDBRANCH  29  31
ENDBRANCH   1  29
BRANCH  25  36
ATOM     36  O37 ZIN AC000      -6.404  -3.774  -3.611  0.00  0.00    -0.392 OA
ATOM     37  H66 ZIN AC000      -6.099  -2.968  -4.049  0.00  0.00     0.210 HD
ENDBRANCH  25  36
TORSDOF 5
