REMARK  11 active torsions:
REMARK  status: ('A' for Active; 'I' for Inactive)
REMARK    1  A    between atoms: O2_2  and  C3_3 
REMARK    2  A    between atoms: C3_3  and  C5_5 
REMARK    3  A    between atoms: C5_5  and  C6_6 
REMARK    4  A    between atoms: C6_6  and  C7_7 
REMARK    5  A    between atoms: C10_10  and  O11_11 
REMARK    6  A    between atoms: O11_11  and  C12_12 
REMARK    7  A    between atoms: C12_12  and  C13_13 
REMARK    8  A    between atoms: C13_13  and  O15_14 
REMARK    9  A    between atoms: C13_13  and  C16_15 
REMARK   10  A    between atoms: C16_15  and  N17_16 
REMARK   11  A    between atoms: N17_16  and  C20_19 
ROOT
ATOM      1  C7  ZIN AC000      -2.764  -4.095   0.006  0.00  0.00    -0.058 A 
ATOM      2  C8  ZIN AC000      -2.796  -4.779  -1.195  0.00  0.00     0.010 A 
ATOM      3  C9  ZIN AC000      -2.849  -6.159  -1.205  0.00  0.00     0.037 A 
ATOM      4  C10 ZIN AC000      -2.870  -6.859  -0.007  0.00  0.00     0.068 A 
ATOM      5  C23 ZIN AC000      -2.837  -6.171   1.197  0.00  0.00     0.037 A 
ATOM      6  C24 ZIN AC000      -2.779  -4.791   1.201  0.00  0.00     0.010 A 
ENDROOT
BRANCH   4   7
ATOM      7  O11 ZIN AC000      -2.923  -8.217  -0.014  0.00  0.00    -0.349 OA
BRANCH   7   8
ATOM      8  C12 ZIN AC000      -2.941  -8.872   1.256  0.00  0.00     0.209 C 
BRANCH   8   9
ATOM      9  C13 ZIN AC000      -3.001 -10.387   1.048  0.00  0.00     0.168 C 
BRANCH   9  10
ATOM     10  O15 ZIN AC000      -1.799 -10.828   0.413  0.00  0.00    -0.392 OA
ATOM     11  H36 ZIN AC000      -0.996 -10.640   0.917  0.00  0.00     0.210 HD
ENDBRANCH   9  10
BRANCH   9  12
ATOM     12  C16 ZIN AC000      -3.146 -11.082   2.403  0.00  0.00     0.266 C 
BRANCH  12  13
ATOM     13  N17 ZIN AC000      -3.203 -12.537   2.203  0.00  0.00    -0.069 N 
ATOM     14  H18 ZIN AC000      -3.995 -12.765   1.621  0.00  0.00     0.277 HD
ATOM     15  H19 ZIN AC000      -2.355 -12.848   1.754  0.00  0.00     0.277 HD
BRANCH  13  16
ATOM     16  C20 ZIN AC000      -3.343 -13.205   3.504  0.00  0.00     0.178 C 
ATOM     17  C21 ZIN AC000      -3.527 -14.708   3.288  0.00  0.00     0.039 C 
ATOM     18  C22 ZIN AC000      -2.086 -12.960   4.340  0.00  0.00     0.039 C 
ENDBRANCH  13  16
ENDBRANCH  12  13
ENDBRANCH   9  12
ENDBRANCH   8   9
ENDBRANCH   7   8
ENDBRANCH   4   7
BRANCH   1  19
ATOM     19  C6  ZIN AC000      -2.705  -2.589   0.014  0.00  0.00     0.048 C 
BRANCH  19  20
ATOM     20  C5  ZIN AC000      -1.244  -2.135   0.003  0.00  0.00     0.115 C 
BRANCH  20  21
ATOM     21  C3  ZIN AC000      -1.185  -0.630   0.010  0.00  0.00     0.258 C 
ATOM     22  O4  ZIN AC000      -2.208   0.015   0.023  0.00  0.00    -0.265 OA
BRANCH  21  23
ATOM     23  O2  ZIN AC000       0.002  -0.004   0.002  0.00  0.00    -0.326 OA
ATOM     24  C1  ZIN AC000      -0.018   1.448   0.010  0.00  0.00     0.213 C 
ENDBRANCH  21  23
ENDBRANCH  20  21
ENDBRANCH  19  20
ENDBRANCH   1  19
TORSDOF 11
