REMARK  5 active torsions:
REMARK  status: ('A' for Active; 'I' for Inactive)
REMARK    1  A    between atoms: C2_2  and  C4_4 
REMARK    2  A    between atoms: C7_7  and  N8_8 
REMARK    3  A    between atoms: C10_10  and  C11_11 
REMARK    4  A    between atoms: C19_19  and  C20_20 
REMARK    5  A    between atoms: C25_25  and  O26_26 
ROOT
ATOM      1  N8  ZIN AC000      -4.948   3.953   0.075  0.00  0.00    -0.213 N 
ATOM      2  N9  ZIN AC000      -5.251   5.127   0.784  0.00  0.00    -0.144 NA
ATOM      3  C10 ZIN AC000      -6.487   5.454   0.475  0.00  0.00     0.185 A 
ATOM      4  N18 ZIN AC000      -6.978   4.554  -0.386  0.00  0.00    -0.206 NA
ATOM      5  C19 ZIN AC000      -6.063   3.643  -0.646  0.00  0.00     0.166 A 
ENDROOT
BRANCH   1   6
ATOM      6  C7  ZIN AC000      -3.744   3.248   0.098  0.00  0.00     0.060 A 
ATOM      7  C6  ZIN AC000      -3.088   3.034   1.307  0.00  0.00     0.032 A 
ATOM      8  C5  ZIN AC000      -1.901   2.340   1.334  0.00  0.00     0.021 A 
ATOM      9  C4  ZIN AC000      -1.353   1.848   0.145  0.00  0.00     0.041 A 
ATOM     10  C28 ZIN AC000      -2.012   2.070  -1.069  0.00  0.00     0.021 A 
ATOM     11  C27 ZIN AC000      -3.202   2.760  -1.087  0.00  0.00     0.032 A 
BRANCH   9  12
ATOM     12  C2  ZIN AC000      -0.082   1.103   0.169  0.00  0.00     0.209 C 
ATOM     13  O1  ZIN AC000       0.399   0.678  -0.872  0.00  0.00    -0.644 OA
ATOM     14  O3  ZIN AC000       0.496   0.915   1.231  0.00  0.00    -0.644 OA
ENDBRANCH   9  12
ENDBRANCH   1   6
BRANCH   5  15
ATOM     15  C20 ZIN AC000      -6.221   2.485  -1.550  0.00  0.00     0.045 A 
ATOM     16  C25 ZIN AC000      -6.753   2.661  -2.833  0.00  0.00     0.079 A 
ATOM     17  C24 ZIN AC000      -6.892   1.570  -3.676  0.00  0.00     0.037 A 
ATOM     18  C23 ZIN AC000      -6.517   0.311  -3.246  0.00  0.00     0.003 A 
ATOM     19  C22 ZIN AC000      -5.996   0.132  -1.976  0.00  0.00     0.001 A 
ATOM     20  C21 ZIN AC000      -5.847   1.209  -1.127  0.00  0.00     0.018 A 
BRANCH  16  21
ATOM     21  O26 ZIN AC000      -7.121   3.899  -3.255  0.00  0.00    -0.360 OA
ATOM     22  H39 ZIN AC000      -8.043   4.121  -3.066  0.00  0.00     0.217 HD
ENDBRANCH  16  21
ENDBRANCH   5  15
BRANCH   3  23
ATOM     23  C11 ZIN AC000      -7.221   6.632   0.998  0.00  0.00     0.050 A 
ATOM     24  C16 ZIN AC000      -6.599   7.505   1.897  0.00  0.00     0.121 A 
ATOM     25  C15 ZIN AC000      -7.290   8.606   2.375  0.00  0.00     0.041 A 
ATOM     26  O17 ZIN AC000      -5.319   7.279   2.290  0.00  0.00    -0.191 OA
ATOM     27  C14 ZIN AC000      -8.593   8.835   1.974  0.00  0.00     0.003 A 
ATOM     28  C13 ZIN AC000      -9.212   7.970   1.089  0.00  0.00     0.001 A 
ATOM     29  C12 ZIN AC000      -8.534   6.872   0.600  0.00  0.00     0.018 A 
ENDBRANCH   3  23
TORSDOF 5
