REMARK  10 active torsions:
REMARK  status: ('A' for Active; 'I' for Inactive)
REMARK    1  A    between atoms: C2_2  and  C3_3 
REMARK    2  A    between atoms: N5_5  and  C6_6 
REMARK    3  A    between atoms: C6_6  and  C7_7 
REMARK    4  A    between atoms: C7_7  and  C8_8 
REMARK    5  A    between atoms: C8_8  and  N9_9 
REMARK    6  A    between atoms: N13_13  and  C14_14 
REMARK    7  A    between atoms: N25_25  and  C26_26 
REMARK    8  A    between atoms: C26_26  and  C27_27 
REMARK    9  A    between atoms: C27_27  and  O28_28 
REMARK   10  A    between atoms: O28_28  and  C29_29 
ROOT
ATOM      1  C3  ZIN AC000       0.731  -0.503   1.223  0.00  0.00     0.130 A 
ATOM      2  N4  ZIN AC000       1.255   0.240   2.143  0.00  0.00    -0.154 NA
ATOM      3  N5  ZIN AC000       1.838  -0.599   3.103  0.00  0.00    -0.218 N 
ATOM      4  C23 ZIN AC000       1.631  -1.871   2.702  0.00  0.00     0.346 A 
ATOM      5  O24 ZIN AC000       1.995  -2.878   3.282  0.00  0.00    -0.245 OA
ATOM      6  N25 ZIN AC000       0.943  -1.822   1.544  0.00  0.00    -0.282 N 
ENDROOT
BRANCH   3   7
ATOM      7  C6  ZIN AC000       2.541  -0.175   4.316  0.00  0.00     0.158 C 
BRANCH   7   8
ATOM      8  C7  ZIN AC000       4.029   0.001   4.008  0.00  0.00     0.050 C 
BRANCH   8   9
ATOM      9  C8  ZIN AC000       4.763   0.445   5.275  0.00  0.00     0.236 C 
BRANCH   9  10
ATOM     10  N9  ZIN AC000       6.192   0.614   4.979  0.00  0.00    -0.069 N 
ATOM     11  H10 ZIN AC000       6.556  -0.239   4.581  0.00  0.00     0.280 HD
ATOM     12  C22 ZIN AC000       6.367   1.714   4.022  0.00  0.00     0.249 C 
ATOM     13  C21 ZIN AC000       7.854   1.878   3.699  0.00  0.00     0.123 C 
ATOM     14  N13 ZIN AC000       8.593   2.161   4.938  0.00  0.00    -0.280 NA
ATOM     15  C12 ZIN AC000       8.407   1.079   5.915  0.00  0.00     0.123 C 
ATOM     16  C11 ZIN AC000       6.916   0.922   6.220  0.00  0.00     0.249 C 
BRANCH  14  17
ATOM     17  C14 ZIN AC000       9.949   2.370   4.675  0.00  0.00     0.012 A 
ATOM     18  C20 ZIN AC000      10.339   3.353   3.774  0.00  0.00     0.047 A 
ATOM     19  C18 ZIN AC000      11.682   3.562   3.521  0.00  0.00     0.035 A 
ATOM     20  C17 ZIN AC000      12.636   2.784   4.155  0.00  0.00     0.024 A 
ATOM     21 Cl19 ZIN AC000      12.172   4.795   2.402  0.00  0.00    -0.084 Cl
ATOM     22  C16 ZIN AC000      12.249   1.802   5.047  0.00  0.00     0.003 A 
ATOM     23  C15 ZIN AC000      10.909   1.593   5.309  0.00  0.00     0.024 A 
ENDBRANCH  14  17
ENDBRANCH   9  10
ENDBRANCH   8   9
ENDBRANCH   7   8
ENDBRANCH   3   7
BRANCH   1  24
ATOM     24  C2  ZIN AC000       0.002  -0.004   0.002  0.00  0.00     0.076 C 
ATOM     25  C1  ZIN AC000      -0.019   1.526   0.010  0.00  0.00     0.013 C 
ENDBRANCH   1  24
BRANCH   6  26
ATOM     26  C26 ZIN AC000       0.504  -2.977   0.757  0.00  0.00     0.162 C 
BRANCH  26  27
ATOM     27  C27 ZIN AC000      -0.889  -3.410   1.220  0.00  0.00     0.196 C 
BRANCH  27  28
ATOM     28  O28 ZIN AC000      -1.830  -2.375   0.929  0.00  0.00    -0.350 OA
BRANCH  28  29
ATOM     29  C29 ZIN AC000      -3.124  -2.602   1.279  0.00  0.00     0.068 A 
ATOM     30  C34 ZIN AC000      -4.091  -1.640   1.027  0.00  0.00     0.037 A 
ATOM     31  C33 ZIN AC000      -5.406  -1.875   1.378  0.00  0.00     0.003 A 
ATOM     32  C32 ZIN AC000      -5.757  -3.063   1.992  0.00  0.00     0.000 A 
ATOM     33  C31 ZIN AC000      -4.794  -4.021   2.251  0.00  0.00     0.003 A 
ATOM     34  C30 ZIN AC000      -3.478  -3.794   1.895  0.00  0.00     0.037 A 
ENDBRANCH  28  29
ENDBRANCH  27  28
ENDBRANCH  26  27
ENDBRANCH   6  26
TORSDOF 10
