REMARK  8 active torsions:
REMARK  status: ('A' for Active; 'I' for Inactive)
REMARK    1  A    between atoms: C4_4  and  C5_5 
REMARK    2  A    between atoms: C16_15  and  C18_16 
REMARK    3  A    between atoms: C18_16  and  C21_18 
REMARK    4  A    between atoms: C22_19  and  C23_20 
REMARK    5  A    between atoms: C23_20  and  O25_21 
REMARK    6  A    between atoms: C23_20  and  C26_22 
REMARK    7  A    between atoms: C30_26  and  O32_27 
REMARK    8  A    between atoms: C34_29  and  O36_30 
ROOT
ATOM      1  C5  ZIN AC000      -2.201   0.693   1.681  0.00  0.00     0.004 C 
ATOM      2  C6  ZIN AC000      -3.232   1.014   2.462  0.00  0.00    -0.075 C 
ATOM      3  C7  ZIN AC000      -4.522   0.208   2.483  0.00  0.00     0.034 C 
ATOM      4  C8  ZIN AC000      -4.917  -0.143   3.916  0.00  0.00     0.005 C 
ATOM      5  C9  ZIN AC000      -4.867   1.085   4.839  0.00  0.00     0.010 C 
ATOM      6  C10 ZIN AC000      -3.454   1.621   4.807  0.00  0.00    -0.032 C 
ATOM      7  C11 ZIN AC000      -2.472   0.474   5.052  0.00  0.00     0.016 C 
ATOM      8  C12 ZIN AC000      -3.200   2.193   3.389  0.00  0.00     0.023 C 
ATOM      9  C14 ZIN AC000      -1.847   2.881   3.583  0.00  0.00     0.010 C 
ATOM     10  C15 ZIN AC000      -2.010   3.577   4.964  0.00  0.00     0.007 C 
ATOM     11  C16 ZIN AC000      -3.103   2.786   5.721  0.00  0.00     0.002 C 
ENDROOT
BRANCH   1  12
ATOM     12  C4  ZIN AC000      -2.289  -0.470   0.795  0.00  0.00     0.008 C 
ATOM     13  C3  ZIN AC000      -1.246  -0.796   0.003  0.00  0.00    -0.048 C 
ATOM     14  C2  ZIN AC000       0.002  -0.004   0.002  0.00  0.00    -0.033 C 
ATOM     15  C29 ZIN AC000      -1.297  -1.991  -0.927  0.00  0.00     0.071 C 
ATOM     16  C1  ZIN AC000      -0.016   1.329   0.009  0.00  0.00     0.022 C 
ATOM     17  C34 ZIN AC000       1.303  -0.781  -0.015  0.00  0.00     0.153 C 
ATOM     18  C33 ZIN AC000       1.201  -1.880  -1.071  0.00  0.00     0.068 C 
ATOM     19  C30 ZIN AC000       0.004  -2.783  -0.768  0.00  0.00     0.125 C 
BRANCH  17  20
ATOM     20  O36 ZIN AC000       1.523  -1.367   1.270  0.00  0.00    -0.391 OA
ATOM     21  H70 ZIN AC000       1.598  -0.724   1.988  0.00  0.00     0.210 HD
ENDBRANCH  17  20
BRANCH  19  22
ATOM     22  O32 ZIN AC000       0.002  -3.887  -1.676  0.00  0.00    -0.395 OA
ATOM     23  H67 ZIN AC000      -0.728  -4.506  -1.540  0.00  0.00     0.210 HD
ENDBRANCH  19  22
ENDBRANCH   1  12
BRANCH  11  24
ATOM     24  C18 ZIN AC000      -2.560   2.272   7.055  0.00  0.00     0.009 C 
ATOM     25  C20 ZIN AC000      -3.644   1.463   7.770  0.00  0.00     0.014 C 
BRANCH  24  26
ATOM     26  C21 ZIN AC000      -2.156   3.441   7.917  0.00  0.00    -0.024 C 
ATOM     27  C22 ZIN AC000      -0.916   3.560   8.320  0.00  0.00     0.001 C 
BRANCH  27  28
ATOM     28  C23 ZIN AC000      -0.512   4.729   9.182  0.00  0.00     0.144 C 
BRANCH  28  29
ATOM     29  O25 ZIN AC000      -1.670   5.497   9.515  0.00  0.00    -0.391 OA
ATOM     30  H59 ZIN AC000      -2.343   5.002  10.003  0.00  0.00     0.210 HD
ENDBRANCH  28  29
BRANCH  28  31
ATOM     31  C26 ZIN AC000       0.146   4.214  10.464  0.00  0.00     0.018 A 
ATOM     32  C28 ZIN AC000       0.629   5.255  11.476  0.00  0.00     0.008 A 
ATOM     33  C27 ZIN AC000       1.644   4.471  10.641  0.00  0.00     0.008 A 
ENDBRANCH  28  31
ENDBRANCH  27  28
ENDBRANCH  24  26
ENDBRANCH  11  24
TORSDOF 8
