REMARK  24 active torsions:
REMARK  status: ('A' for Active; 'I' for Inactive)
REMARK    1  A    between atoms: C2_2  and  C3_3 
REMARK    2  A    between atoms: C3_3  and  C4_4 
REMARK    3  A    between atoms: C4_4  and  C5_5 
REMARK    4  A    between atoms: C5_5  and  C6_6 
REMARK    5  A    between atoms: C6_6  and  C7_7 
REMARK    6  A    between atoms: C7_7  and  C8_8 
REMARK    7  A    between atoms: C8_8  and  C9_9 
REMARK    8  A    between atoms: C9_9  and  C10_10 
REMARK    9  A    between atoms: C10_10  and  C11_11 
REMARK   10  A    between atoms: C11_11  and  C12_12 
REMARK   11  A    between atoms: C12_12  and  C14_13 
REMARK   12  A    between atoms: C12_12  and  O28_25 
REMARK   13  A    between atoms: C14_13  and  C15_14 
REMARK   14  A    between atoms: C20_18  and  C22_19 
REMARK   15  A    between atoms: C22_19  and  C23_20 
REMARK   16  A    between atoms: C23_20  and  C24_21 
REMARK   17  A    between atoms: C24_21  and  C25_22 
REMARK   18  A    between atoms: C25_22  and  C26_23 
REMARK   19  A    between atoms: O28_25  and  C29_26 
REMARK   20  A    between atoms: C29_26  and  C31_28 
REMARK   21  A    between atoms: C31_28  and  C33_29 
REMARK   22  A    between atoms: C31_28  and  N37_33 
REMARK   23  A    between atoms: C33_29  and  C34_30 
REMARK   24  A    between atoms: N37_33  and  C38_34 
ROOT
ATOM      1  C12 ZIN AC000      -6.979 -10.209   0.030  0.00  0.00     0.134 C 
ENDROOT
BRANCH   1   2
ATOM      2  C11 ZIN AC000      -6.865  -8.684   0.099  0.00  0.00     0.032 C 
BRANCH   2   3
ATOM      3  C10 ZIN AC000      -5.389  -8.286   0.156  0.00  0.00     0.002 C 
BRANCH   3   4
ATOM      4  C9  ZIN AC000      -5.274  -6.762   0.225  0.00  0.00     0.000 C 
BRANCH   4   5
ATOM      5  C8  ZIN AC000      -3.798  -6.363   0.282  0.00  0.00     0.000 C 
BRANCH   5   6
ATOM      6  C7  ZIN AC000      -3.684  -4.839   0.351  0.00  0.00     0.000 C 
BRANCH   6   7
ATOM      7  C6  ZIN AC000      -2.208  -4.440   0.408  0.00  0.00     0.000 C 
BRANCH   7   8
ATOM      8  C5  ZIN AC000      -2.094  -2.916   0.477  0.00  0.00     0.000 C 
BRANCH   8   9
ATOM      9  C4  ZIN AC000      -0.618  -2.517   0.534  0.00  0.00     0.000 C 
BRANCH   9  10
ATOM     10  C3  ZIN AC000      -0.503  -0.993   0.603  0.00  0.00    -0.000 C 
BRANCH  10  11
ATOM     11  C2  ZIN AC000       0.973  -0.595   0.660  0.00  0.00    -0.005 C 
ATOM     12  C1  ZIN AC000       1.087   0.930   0.729  0.00  0.00     0.005 C 
ENDBRANCH  10  11
ENDBRANCH   9  10
ENDBRANCH   8   9
ENDBRANCH   7   8
ENDBRANCH   6   7
ENDBRANCH   5   6
ENDBRANCH   4   5
ENDBRANCH   3   4
ENDBRANCH   2   3
ENDBRANCH   1   2
BRANCH   1  13
ATOM     13  C14 ZIN AC000      -8.453 -10.613   0.098  0.00  0.00     0.066 C 
BRANCH  13  14
ATOM     14  C15 ZIN AC000      -8.561 -12.138   0.155  0.00  0.00     0.147 C 
ATOM     15  C20 ZIN AC000     -10.007 -12.661   0.279  0.00  0.00     0.115 C 
ATOM     16  C18 ZIN AC000      -9.591 -13.637  -0.816  0.00  0.00     0.266 C 
ATOM     17  O17 ZIN AC000      -8.588 -12.785  -1.162  0.00  0.00    -0.315 OA
ATOM     18  O19 ZIN AC000      -9.983 -14.711  -1.208  0.00  0.00    -0.265 OA
BRANCH  15  19
ATOM     19  C22 ZIN AC000     -10.323 -13.328   1.619  0.00  0.00     0.017 C 
BRANCH  19  20
ATOM     20  C23 ZIN AC000     -11.773 -13.816   1.617  0.00  0.00     0.001 C 
BRANCH  20  21
ATOM     21  C24 ZIN AC000     -12.089 -14.483   2.957  0.00  0.00     0.000 C 
BRANCH  21  22
ATOM     22  C25 ZIN AC000     -13.539 -14.971   2.954  0.00  0.00    -0.000 C 
BRANCH  22  23
ATOM     23  C26 ZIN AC000     -13.856 -15.637   4.295  0.00  0.00    -0.005 C 
ATOM     24  C27 ZIN AC000     -15.306 -16.126   4.292  0.00  0.00     0.005 C 
ENDBRANCH  22  23
ENDBRANCH  21  22
ENDBRANCH  20  21
ENDBRANCH  19  20
ENDBRANCH  15  19
ENDBRANCH  13  14
ENDBRANCH   1  13
BRANCH   1  25
ATOM     25  O28 ZIN AC000      -6.405 -10.681  -1.217  0.00  0.00    -0.314 OA
BRANCH  25  26
ATOM     26  C29 ZIN AC000      -5.857 -11.907  -1.210  0.00  0.00     0.282 C 
ATOM     27  O30 ZIN AC000      -5.858 -12.563  -0.196  0.00  0.00    -0.263 OA
BRANCH  26  28
ATOM     28  C31 ZIN AC000      -5.242 -12.464  -2.468  0.00  0.00     0.184 C 
BRANCH  28  29
ATOM     29  C33 ZIN AC000      -6.346 -13.004  -3.380  0.00  0.00     0.039 C 
BRANCH  29  30
ATOM     30  C34 ZIN AC000      -5.729 -13.500  -4.689  0.00  0.00    -0.020 C 
ATOM     31  C35 ZIN AC000      -6.809 -14.172  -5.540  0.00  0.00     0.009 C 
ATOM     32  C36 ZIN AC000      -5.139 -12.315  -5.456  0.00  0.00     0.009 C 
ENDBRANCH  29  30
ENDBRANCH  28  29
BRANCH  28  33
ATOM     33  N37 ZIN AC000      -4.321 -13.549  -2.121  0.00  0.00    -0.354 N 
ATOM     34  H87 ZIN AC000      -3.383 -13.484  -2.360  0.00  0.00     0.162 HD
BRANCH  33  35
ATOM     35  C38 ZIN AC000      -4.777 -14.639  -1.471  0.00  0.00     0.349 C 
ATOM     36  O39 ZIN AC000      -5.949 -14.720  -1.173  0.00  0.00    -0.284 OA
ENDBRANCH  33  35
ENDBRANCH  28  33
ENDBRANCH  26  28
ENDBRANCH  25  26
ENDBRANCH   1  25
TORSDOF 24
