REMARK  7 active torsions:
REMARK  status: ('A' for Active; 'I' for Inactive)
REMARK    1  A    between atoms: N2_2  and  C5_5 
REMARK    2  A    between atoms: C5_5  and  C6_6 
REMARK    3  A    between atoms: C6_6  and  C7_7 
REMARK    4  A    between atoms: C7_7  and  O9_8 
REMARK    5  A    between atoms: C7_7  and  C20_19 
REMARK    6  A    between atoms: O9_8  and  C10_9 
REMARK    7  A    between atoms: C13_12  and  C14_13 
ROOT
ATOM      1  C7  ZIN AC000      -2.774  -2.343   0.055  0.00  0.00     0.163 C 
ENDROOT
BRANCH   1   2
ATOM      2  C6  ZIN AC000      -1.338  -1.833  -0.074  0.00  0.00     0.065 C 
BRANCH   2   3
ATOM      3  C5  ZIN AC000      -1.354  -0.328  -0.351  0.00  0.00     0.234 C 
BRANCH   3   4
ATOM      4  N2  ZIN AC000       0.026   0.162  -0.475  0.00  0.00    -0.079 N 
ATOM      5  C1  ZIN AC000       0.011   1.606  -0.741  0.00  0.00     0.266 C 
ATOM      6  H3  ZIN AC000       0.485  -0.316  -1.236  0.00  0.00     0.276 HD
ATOM      7  H4  ZIN AC000       0.525  -0.017   0.384  0.00  0.00     0.276 HD
ENDBRANCH   3   4
ENDBRANCH   2   3
ENDBRANCH   1   2
BRANCH   1   8
ATOM      8  O9  ZIN AC000      -3.446  -2.196  -1.198  0.00  0.00    -0.341 OA
BRANCH   8   9
ATOM      9  C10 ZIN AC000      -4.802  -2.105  -1.164  0.00  0.00     0.069 A 
ATOM     10  C19 ZIN AC000      -5.479  -2.269   0.035  0.00  0.00     0.037 A 
ATOM     11  C18 ZIN AC000      -6.857  -2.171   0.068  0.00  0.00     0.019 A 
ATOM     12  C13 ZIN AC000      -7.561  -1.919  -1.095  0.00  0.00     0.048 A 
ATOM     13  C12 ZIN AC000      -6.889  -1.761  -2.292  0.00  0.00     0.019 A 
ATOM     14  C11 ZIN AC000      -5.511  -1.852  -2.329  0.00  0.00     0.037 A 
BRANCH  12  15
ATOM     15  C14 ZIN AC000      -9.064  -1.818  -1.057  0.00  0.00     0.417 C 
ATOM     16  F15 ZIN AC000      -9.622  -3.083  -1.269  0.00  0.00    -0.166 F 
ATOM     17  F16 ZIN AC000      -9.468  -1.334   0.192  0.00  0.00    -0.166 F 
ATOM     18  F17 ZIN AC000      -9.498  -0.943  -2.058  0.00  0.00    -0.166 F 
ENDBRANCH  12  15
ENDBRANCH   8   9
ENDBRANCH   1   8
BRANCH   1  19
ATOM     19  C20 ZIN AC000      -2.757  -3.798   0.448  0.00  0.00    -0.029 A 
ATOM     20  C25 ZIN AC000      -2.965  -4.160   1.766  0.00  0.00     0.010 A 
ATOM     21  C24 ZIN AC000      -2.953  -5.494   2.126  0.00  0.00     0.001 A 
ATOM     22  C23 ZIN AC000      -2.726  -6.466   1.170  0.00  0.00     0.000 A 
ATOM     23  C22 ZIN AC000      -2.514  -6.104  -0.147  0.00  0.00     0.001 A 
ATOM     24  C21 ZIN AC000      -2.529  -4.770  -0.508  0.00  0.00     0.010 A 
ENDBRANCH   1  19
TORSDOF 7
