REMARK  0 active torsions:
REMARK  status: ('A' for Active; 'I' for Inactive)
ROOT
ATOM      1  C1  ZIN AC000      -0.019   1.526   0.010  0.00  0.00     0.051 C 
ATOM      2  C2  ZIN AC000       0.002  -0.004   0.002  0.00  0.00     0.179 C 
ATOM      3  O4  ZIN AC000      -1.338  -0.546   0.096  0.00  0.00    -0.362 OA
ATOM      4  C5  ZIN AC000      -1.345  -1.911   0.513  0.00  0.00     0.101 C 
ATOM      5  C6  ZIN AC000      -0.199  -2.241   1.496  0.00  0.00     0.116 C 
ATOM      6  S7  ZIN AC000       0.752  -0.667   1.548  0.00  0.00    -0.135 SA
ATOM      7  C8  ZIN AC000      -2.680  -2.224   1.200  0.00  0.00     0.311 C 
ATOM      8  N9  ZIN AC000      -3.377  -3.278   0.451  0.00  0.00     0.091 N 
ATOM      9  C10 ZIN AC000      -3.685  -2.839  -0.916  0.00  0.00     0.273 C 
ATOM     10  C11 ZIN AC000      -2.380  -2.547  -1.662  0.00  0.00     0.038 C 
ATOM     11  C12 ZIN AC000      -1.200  -2.815  -0.720  0.00  0.00     0.026 C 
ATOM     12  C13 ZIN AC000      -1.260  -4.278  -0.262  0.00  0.00     0.038 C 
ATOM     13  C14 ZIN AC000      -2.597  -4.523   0.442  0.00  0.00     0.273 C 
ENDROOT
TORSDOF 0
