REMARK  7 active torsions:
REMARK  status: ('A' for Active; 'I' for Inactive)
REMARK    1  A    between atoms: O2_2  and  C3_3 
REMARK    2  A    between atoms: C3_3  and  C4_4 
REMARK    3  A    between atoms: C3_3  and  C10_10 
REMARK    4  A    between atoms: C3_3  and  C16_16 
REMARK    5  A    between atoms: C16_16  and  O18_17 
REMARK    6  A    between atoms: C16_16  and  C27_26 
REMARK    7  A    between atoms: O18_17  and  C19_18 
ROOT
ATOM      1  C3  ZIN AC000       0.740  -0.479   1.247  0.00  0.00     0.151 C 
ENDROOT
BRANCH   1   2
ATOM      2  O2  ZIN AC000       0.202   0.029   0.024  0.00  0.00    -0.372 OA
ATOM      3  C1  ZIN AC000      -1.123  -0.424  -0.260  0.00  0.00     0.203 C 
ENDBRANCH   1   2
BRANCH   1   4
ATOM      4  C4  ZIN AC000       0.794  -1.984   1.186  0.00  0.00    -0.016 A 
ATOM      5  C9  ZIN AC000       0.970  -2.620  -0.029  0.00  0.00     0.011 A 
ATOM      6  C8  ZIN AC000       1.024  -4.000  -0.084  0.00  0.00     0.001 A 
ATOM      7  C7  ZIN AC000       0.892  -4.744   1.073  0.00  0.00     0.000 A 
ATOM      8  C6  ZIN AC000       0.712  -4.108   2.287  0.00  0.00     0.001 A 
ATOM      9  C5  ZIN AC000       0.662  -2.728   2.343  0.00  0.00     0.011 A 
ENDBRANCH   1   4
BRANCH   1  10
ATOM     10  C10 ZIN AC000       2.131   0.066   1.448  0.00  0.00    -0.016 A 
ATOM     11  C15 ZIN AC000       2.919   0.369   0.355  0.00  0.00     0.011 A 
ATOM     12  C14 ZIN AC000       4.193   0.873   0.540  0.00  0.00     0.001 A 
ATOM     13  C13 ZIN AC000       4.682   1.065   1.819  0.00  0.00     0.000 A 
ATOM     14  C12 ZIN AC000       3.895   0.756   2.912  0.00  0.00     0.001 A 
ATOM     15  C11 ZIN AC000       2.619   0.257   2.727  0.00  0.00     0.011 A 
ENDBRANCH   1  10
BRANCH   1  16
ATOM     16  C16 ZIN AC000      -0.151  -0.048   2.413  0.00  0.00     0.276 C 
BRANCH  16  17
ATOM     17  O18 ZIN AC000      -1.432  -0.669   2.290  0.00  0.00    -0.299 OA
BRANCH  17  18
ATOM     18  C19 ZIN AC000      -2.100  -0.933   3.438  0.00  0.00     0.270 A 
ATOM     19  N26 ZIN AC000      -3.290  -1.508   3.375  0.00  0.00    -0.212 NA
ATOM     20  C24 ZIN AC000      -3.968  -1.785   4.477  0.00  0.00     0.037 A 
ATOM     21  C23 ZIN AC000      -3.421  -1.454   5.707  0.00  0.00     0.053 A 
ATOM     22  C25 ZIN AC000      -5.320  -2.446   4.395  0.00  0.00     0.070 C 
ATOM     23  C21 ZIN AC000      -2.175  -0.848   5.736  0.00  0.00     0.037 A 
ATOM     24  N20 ZIN AC000      -1.550  -0.605   4.596  0.00  0.00    -0.212 NA
ATOM     25  C22 ZIN AC000      -1.542  -0.470   7.050  0.00  0.00     0.070 C 
ENDBRANCH  17  18
ENDBRANCH  16  17
BRANCH  16  26
ATOM     26  C27 ZIN AC000      -0.316   1.450   2.393  0.00  0.00     0.207 C 
ATOM     27  O28 ZIN AC000      -1.413   1.940   2.184  0.00  0.00    -0.646 OA
ATOM     28  O29 ZIN AC000       0.648   2.172   2.584  0.00  0.00    -0.646 OA
ENDBRANCH  16  26
ENDBRANCH   1  16
TORSDOF 7
