REMARK  3 active torsions:
REMARK  status: ('A' for Active; 'I' for Inactive)
REMARK    1  A    between atoms: C2_2  and  C4_3 
REMARK    2  A    between atoms: C2_2  and  N19_18 
REMARK    3  A    between atoms: C4_3  and  N5_4 
ROOT
ATOM      1  N5  ZIN AC000       1.004  -2.115  -0.537  0.00  0.00    -0.343 N 
ATOM      2  C6  ZIN AC000       2.184  -2.417   0.152  0.00  0.00     0.052 A 
ATOM      3  C7  ZIN AC000       3.362  -1.756  -0.158  0.00  0.00     0.031 A 
ATOM      4  C8  ZIN AC000       4.527  -2.062   0.524  0.00  0.00     0.002 A 
ATOM      5  C9  ZIN AC000       4.524  -3.024   1.516  0.00  0.00     0.002 A 
ATOM      6  C10 ZIN AC000       3.352  -3.690   1.834  0.00  0.00     0.021 A 
ATOM      7  C11 ZIN AC000       2.186  -3.389   1.156  0.00  0.00     0.032 A 
ATOM      8  S12 ZIN AC000       0.679  -4.221   1.546  0.00  0.00    -0.086 SA
ATOM      9  C13 ZIN AC000      -0.169  -4.170  -0.001  0.00  0.00     0.032 A 
ATOM     10  C14 ZIN AC000      -1.071  -5.160  -0.343  0.00  0.00     0.021 A 
ATOM     11  C15 ZIN AC000      -1.728  -5.101  -1.561  0.00  0.00     0.002 A 
ATOM     12  C16 ZIN AC000      -1.483  -4.056  -2.431  0.00  0.00     0.002 A 
ATOM     13  C17 ZIN AC000      -0.580  -3.062  -2.094  0.00  0.00     0.031 A 
ATOM     14  C18 ZIN AC000       0.081  -3.112  -0.874  0.00  0.00     0.052 A 
ENDROOT
BRANCH   1  15
ATOM     15  C4  ZIN AC000       0.726  -0.725  -0.907  0.00  0.00     0.162 C 
BRANCH  15  16
ATOM     16  C2  ZIN AC000       0.079  -0.002   0.277  0.00  0.00     0.201 C 
ATOM     17  C1  ZIN AC000      -1.282  -0.633   0.578  0.00  0.00     0.042 C 
BRANCH  16  18
ATOM     18  N19 ZIN AC000      -0.102   1.417  -0.057  0.00  0.00    -0.073 N 
ATOM     19  H20 ZIN AC000      -0.679   1.498  -0.880  0.00  0.00     0.279 HD
ATOM     20  C21 ZIN AC000      -0.752   2.105   1.067  0.00  0.00     0.269 C 
ATOM     21  C22 ZIN AC000       1.208   2.030  -0.314  0.00  0.00     0.269 C 
ENDBRANCH  16  18
ENDBRANCH  15  16
ENDBRANCH   1  15
TORSDOF 3
