REMARK  5 active torsions:
REMARK  status: ('A' for Active; 'I' for Inactive)
REMARK    1  A    between atoms: N2_2  and  C5_5 
REMARK    2  A    between atoms: C9_8  and  C10_9 
REMARK       I    between atoms: C10_9  and  N11_10 
REMARK    3  A    between atoms: C15_14  and  O16_15 
REMARK    4  A    between atoms: C23_22  and  O24_23 
REMARK    5  A    between atoms: C30_29  and  O32_30 
ROOT
ATOM      1  C5  ZIN AC000      -1.352  -0.515   0.126  0.00  0.00     0.255 C 
ATOM      2  C7  ZIN AC000      -1.298  -2.006   0.272  0.00  0.00     0.135 C 
ATOM      3  O8  ZIN AC000      -0.974  -2.529   1.464  0.00  0.00    -0.193 OA
ATOM      4  C9  ZIN AC000      -1.570  -2.854  -0.772  0.00  0.00     0.115 C 
ATOM      5  C13 ZIN AC000      -1.957  -2.320  -2.076  0.00  0.00     0.210 C 
ATOM      6  O14 ZIN AC000      -2.402  -3.051  -2.937  0.00  0.00    -0.288 OA
ATOM      7  C15 ZIN AC000      -1.793  -0.834  -2.335  0.00  0.00     0.194 C 
ATOM      8  C17 ZIN AC000      -2.733  -0.460  -3.450  0.00  0.00     0.201 C 
ATOM      9  O18 ZIN AC000      -2.409  -0.727  -4.591  0.00  0.00    -0.289 OA
ATOM     10  C19 ZIN AC000      -3.951   0.174  -3.242  0.00  0.00     0.036 C 
ATOM     11  C20 ZIN AC000      -4.733   0.500  -4.338  0.00  0.00     0.131 C 
ATOM     12  O21 ZIN AC000      -4.275   0.284  -5.590  0.00  0.00    -0.190 OA
ATOM     13  C22 ZIN AC000      -6.066   1.082  -4.125  0.00  0.00     0.045 A 
ATOM     14  C23 ZIN AC000      -6.745   1.715  -5.175  0.00  0.00     0.079 A 
ATOM     15  C25 ZIN AC000      -7.998   2.265  -4.947  0.00  0.00     0.039 A 
ATOM     16  C26 ZIN AC000      -8.569   2.191  -3.692  0.00  0.00     0.027 A 
ATOM     17  C27 ZIN AC000      -7.902   1.563  -2.650  0.00  0.00     0.044 A 
ATOM     18 Cl28 ZIN AC000      -8.633   1.479  -1.078  0.00  0.00    -0.084 Cl
ATOM     19  C29 ZIN AC000      -6.660   1.006  -2.861  0.00  0.00     0.009 A 
ATOM     20  C30 ZIN AC000      -5.938   0.300  -1.742  0.00  0.00     0.162 C 
ATOM     21  C33 ZIN AC000      -4.437   0.548  -1.868  0.00  0.00     0.059 C 
ATOM     22  C35 ZIN AC000      -3.681  -0.257  -0.808  0.00  0.00     0.023 C 
ATOM     23  C36 ZIN AC000      -2.187  -0.087  -1.065  0.00  0.00     0.074 C 
ENDROOT
BRANCH   4  24
ATOM     24  C10 ZIN AC000      -1.471  -4.310  -0.577  0.00  0.00     0.255 C 
ATOM     25  N11 ZIN AC000      -1.611  -5.141  -1.629  0.00  0.00    -0.366 N 
ATOM     26  H44 ZIN AC000      -1.845  -4.786  -2.501  0.00  0.00     0.159 HD
ATOM     27  H45 ZIN AC000      -1.478  -6.095  -1.514  0.00  0.00     0.159 HD
ATOM     28  O12 ZIN AC000      -1.263  -4.762   0.532  0.00  0.00    -0.268 OA
ENDBRANCH   4  24
BRANCH   1  29
ATOM     29  N2  ZIN AC000       0.015  -0.003  -0.041  0.00  0.00    -0.068 N 
ATOM     30  C1  ZIN AC000      -0.006   1.466  -0.016  0.00  0.00     0.270 C 
ATOM     31  H3  ZIN AC000       0.387  -0.319  -0.924  0.00  0.00     0.279 HD
ATOM     32  C4  ZIN AC000       0.861  -0.499   1.053  0.00  0.00     0.270 C 
ENDBRANCH   1  29
BRANCH   7  33
ATOM     33  O16 ZIN AC000      -0.439  -0.538  -2.684  0.00  0.00    -0.373 OA
ATOM     34  H46 ZIN AC000      -0.129  -0.995  -3.478  0.00  0.00     0.211 HD
ENDBRANCH   7  33
BRANCH  20  35
ATOM     35  O32 ZIN AC000      -6.197  -1.103  -1.819  0.00  0.00    -0.390 OA
ATOM     36  H50 ZIN AC000      -7.133  -1.335  -1.745  0.00  0.00     0.210 HD
ENDBRANCH  20  35
BRANCH  14  37
ATOM     37  O24 ZIN AC000      -6.182   1.788  -6.408  0.00  0.00    -0.360 OA
ATOM     38  H47 ZIN AC000      -6.396   1.041  -6.983  0.00  0.00     0.217 HD
ENDBRANCH  14  37
TORSDOF 5
