REMARK  2 active torsions:
REMARK  status: ('A' for Active; 'I' for Inactive)
REMARK    1  A    between atoms: C2_2  and  O3_3 
REMARK    2  A    between atoms: C22_20  and  O24_21 
ROOT
ATOM      1  C1  ZIN AC000       0.249   1.597   0.666  0.00  0.00     0.046 C 
ATOM      2  C2  ZIN AC000       0.272   0.069   0.603  0.00  0.00     0.062 C 
ATOM      3  C4  ZIN AC000      -1.166  -0.494   0.717  0.00  0.00     0.038 C 
ATOM      4  C5  ZIN AC000      -1.215  -1.305   2.041  0.00  0.00     0.009 C 
ATOM      5  C6  ZIN AC000      -0.088  -0.677   2.869  0.00  0.00     0.004 C 
ATOM      6  C8  ZIN AC000       0.472  -1.542   3.984  0.00  0.00     0.034 C 
ATOM      7  C10 ZIN AC000      -0.615  -1.802   5.032  0.00  0.00     0.013 C 
ATOM      8  C11 ZIN AC000      -0.058  -2.731   6.113  0.00  0.00     0.036 C 
ATOM      9  C12 ZIN AC000       1.207  -2.115   6.683  0.00  0.00    -0.065 C 
ATOM     10  C13 ZIN AC000       1.321  -2.049   8.009  0.00  0.00     0.053 C 
ATOM     11  C14 ZIN AC000       2.528  -1.478   8.616  0.00  0.00     0.149 C 
ATOM     12  O15 ZIN AC000       2.532  -1.053   9.752  0.00  0.00    -0.293 OA
ATOM     13  C16 ZIN AC000       3.771  -1.448   7.748  0.00  0.00     0.084 C 
ATOM     14  C17 ZIN AC000       3.375  -0.840   6.403  0.00  0.00     0.025 C 
ATOM     15  C18 ZIN AC000       2.260  -1.627   5.737  0.00  0.00     0.019 C 
ATOM     16  C19 ZIN AC000       2.884  -2.845   5.053  0.00  0.00     0.023 C 
ATOM     17  C20 ZIN AC000       1.633  -0.772   4.629  0.00  0.00     0.144 C 
ATOM     18  F21 ZIN AC000       1.126   0.403   5.194  0.00  0.00    -0.239 F 
ATOM     19  C22 ZIN AC000       2.712  -0.397   3.617  0.00  0.00     0.160 C 
ATOM     20  C25 ZIN AC000       2.125   0.360   2.415  0.00  0.00     0.047 C 
ATOM     21  C26 ZIN AC000       1.025  -0.499   1.802  0.00  0.00    -0.007 C 
ATOM     22  C27 ZIN AC000       1.575  -1.887   1.470  0.00  0.00     0.019 C 
ENDROOT
BRANCH   2  23
ATOM     23  O3  ZIN AC000       0.880  -0.366  -0.615  0.00  0.00    -0.389 OA
ATOM     24  H31 ZIN AC000       0.432  -0.052  -1.413  0.00  0.00     0.210 HD
ENDBRANCH   2  23
BRANCH  19  25
ATOM     25  O24 ZIN AC000       3.348  -1.588   3.150  0.00  0.00    -0.392 OA
ATOM     26  H48 ZIN AC000       4.048  -1.432   2.501  0.00  0.00     0.210 HD
ENDBRANCH  19  25
TORSDOF 2
