REMARK  12 active torsions:
REMARK  status: ('A' for Active; 'I' for Inactive)
REMARK    1  A    between atoms: C2_2  and  C4_4 
REMARK    2  A    between atoms: C4_4  and  N6_5 
REMARK    3  A    between atoms: C4_4  and  C7_6 
REMARK    4  A    between atoms: C7_6  and  O9_8 
REMARK    5  A    between atoms: O9_8  and  C10_9 
REMARK    6  A    between atoms: C10_9  and  C11_10 
REMARK    7  A    between atoms: C11_10  and  C13_11 
REMARK    8  A    between atoms: C11_10  and  O15_13 
REMARK    9  A    between atoms: C13_11  and  O14_12 
REMARK   10  A    between atoms: O15_13  and  C16_14 
REMARK   11  A    between atoms: C16_14  and  N17_15 
REMARK   12  A    between atoms: C23_21  and  N24_22 
ROOT
ATOM      1  O15 <0> d          -0.616   3.940   3.427  0.00  0.00    -0.362 OA
ENDROOT
BRANCH   1   2
ATOM      2  C11 <0> d          -0.130   3.079   4.458  0.00  0.00     0.171 C 
BRANCH   2   3
ATOM      3  C10 <0> d          -0.478   1.629   4.118  0.00  0.00     0.213 C 
BRANCH   3   4
ATOM      4  O9  <0> d           0.234   1.229   2.918  0.00  0.00    -0.317 OA
BRANCH   4   5
ATOM      5  C7  <0> d           0.037  -0.025   2.481  0.00  0.00     0.292 C 
ATOM      6  O8  <0> d          -0.706  -0.764   3.083  0.00  0.00    -0.263 OA
BRANCH   5   7
ATOM      7  C4  <0> d           0.742  -0.511   1.242  0.00  0.00     0.319 C 
BRANCH   7   8
ATOM      8  C2  <0> d           0.002  -0.004   0.002  0.00  0.00     0.020 C 
ATOM      9  C1  <0> d          -0.019   1.526   0.010  0.00  0.00     0.012 C 
ATOM     10  C3  <0> d           0.718  -0.497  -1.257  0.00  0.00     0.012 C 
ENDBRANCH   7   8
BRANCH   7  11
ATOM     11  N6  <0> d           0.762  -1.980   1.234  0.00  0.00     0.092 N 
ATOM     12  H35 <0> d          -0.175  -2.354   1.240  0.00  0.00     0.313 HD
ATOM     13  H36 <0> d           1.286  -2.330   0.445  0.00  0.00     0.313 HD
ENDBRANCH   7  11
ENDBRANCH   5   7
ENDBRANCH   4   5
ENDBRANCH   3   4
ENDBRANCH   2   3
BRANCH   2  14
ATOM     14  C13 <0> d           1.388   3.226   4.573  0.00  0.00     0.198 C 
BRANCH  14  15
ATOM     15  O14 <0> d           2.004   2.760   3.370  0.00  0.00    -0.398 OA
ATOM     16  H41 <0> d           2.969   2.823   3.372  0.00  0.00     0.209 HD
ENDBRANCH  14  15
ENDBRANCH   2  14
ENDBRANCH   1   2
BRANCH   1  17
ATOM     17  C16 <0> d          -0.972   5.248   3.880  0.00  0.00     0.301 C 
BRANCH  17  18
ATOM     18  N17 <0> d          -1.454   6.043   2.748  0.00  0.00    -0.301 N 
ATOM     19  C21 <0> d          -1.883   7.342   2.796  0.00  0.00     0.186 A 
ATOM     20  C20 <0> d          -2.241   7.680   1.486  0.00  0.00     0.173 A 
ATOM     21  N22 <0> d          -1.999   8.251   3.771  0.00  0.00    -0.044 NA
ATOM     22  N19 <0> d          -2.026   6.587   0.714  0.00  0.00    -0.234 NA
ATOM     23  C26 <0> d          -2.724   8.986   1.232  0.00  0.00     0.292 A 
ATOM     24  C18 <0> d          -1.563   5.622   1.454  0.00  0.00     0.214 A 
ATOM     25  N25 <0> d          -2.810   9.851   2.267  0.00  0.00    -0.152 N 
ATOM     26  O27 <0> d          -3.047   9.324   0.106  0.00  0.00    -0.265 OA
ATOM     27  C23 <0> d          -2.446   9.461   3.521  0.00  0.00     0.703 A 
ATOM     28  H47 <0> d          -3.136  10.752   2.116  0.00  0.00     0.187 HD
BRANCH  27  29
ATOM     29  N24 <0> d          -2.547  10.360   4.553  0.00  0.00    -0.233 N 
ATOM     30  H45 <0> d          -2.291  10.098   5.451  0.00  0.00     0.174 HD
ATOM     31  H46 <0> d          -2.875  11.257   4.385  0.00  0.00     0.174 HD
ENDBRANCH  27  29
ENDBRANCH  17  18
ENDBRANCH   1  17
TORSDOF 12
