REMARK  7 active torsions:
REMARK  status: ('A' for Active; 'I' for Inactive)
REMARK    1  A    between atoms: C2_2  and  N4_4 
REMARK    2  A    between atoms: N4_4  and  C7_7 
REMARK    3  A    between atoms: C7_7  and  C8_8 
REMARK    4  A    between atoms: C8_8  and  O10_9 
REMARK    5  A    between atoms: C8_8  and  C11_10 
REMARK    6  A    between atoms: C11_10  and  O12_11 
REMARK    7  A    between atoms: O12_11  and  C13_12 
ROOT
ATOM      1  C11 ZIN AC000      -2.774  -4.035  -0.114  0.00  0.00     0.209 C 
ENDROOT
BRANCH   1   2
ATOM      2  C8  ZIN AC000      -2.795  -2.505  -0.105  0.00  0.00     0.168 C 
BRANCH   2   3
ATOM      3  C7  ZIN AC000      -1.359  -1.976  -0.116  0.00  0.00     0.266 C 
BRANCH   3   4
ATOM      4  N4  ZIN AC000      -1.376  -0.512   0.012  0.00  0.00    -0.069 N 
ATOM      5  H5  ZIN AC000      -1.823  -0.256   0.880  0.00  0.00     0.277 HD
ATOM      6  H6  ZIN AC000      -1.888  -0.113  -0.760  0.00  0.00     0.277 HD
BRANCH   4   7
ATOM      7  C2  ZIN AC000       0.002  -0.004   0.002  0.00  0.00     0.178 C 
ATOM      8  C1  ZIN AC000      -0.019   1.526   0.010  0.00  0.00     0.039 C 
ATOM      9  C3  ZIN AC000       0.742  -0.511   1.242  0.00  0.00     0.039 C 
ENDBRANCH   4   7
ENDBRANCH   3   4
ENDBRANCH   2   3
BRANCH   2  10
ATOM     10  O10 ZIN AC000      -3.486  -2.032  -1.263  0.00  0.00    -0.392 OA
ATOM     11  H32 ZIN AC000      -3.086  -2.307  -2.100  0.00  0.00     0.210 HD
ENDBRANCH   2  10
ENDBRANCH   1   2
BRANCH   1  12
ATOM     12  O12 ZIN AC000      -4.108  -4.530   0.014  0.00  0.00    -0.348 OA
BRANCH  12  13
ATOM     13  C13 ZIN AC000      -4.267  -5.879   0.023  0.00  0.00     0.080 A 
ATOM     14  C22 ZIN AC000      -3.180  -6.701  -0.086  0.00  0.00     0.037 A 
ATOM     15  C21 ZIN AC000      -3.326  -8.085  -0.072  0.00  0.00     0.004 A 
ATOM     16  C20 ZIN AC000      -4.555  -8.661   0.040  0.00  0.00     0.012 A 
ATOM     17  C19 ZIN AC000      -5.698  -7.851   0.148  0.00  0.00    -0.023 A 
ATOM     18  C14 ZIN AC000      -5.554  -6.441   0.140  0.00  0.00     0.007 A 
ATOM     19  C18 ZIN AC000      -6.981  -8.412   0.264  0.00  0.00     0.012 A 
ATOM     20  C15 ZIN AC000      -6.697  -5.632   0.248  0.00  0.00     0.015 A 
ATOM     21  C16 ZIN AC000      -7.924  -6.210   0.359  0.00  0.00     0.001 A 
ATOM     22  C17 ZIN AC000      -8.066  -7.596   0.367  0.00  0.00     0.001 A 
ENDBRANCH  12  13
ENDBRANCH   1  12
TORSDOF 7
