REMARK  6 active torsions:
REMARK  status: ('A' for Active; 'I' for Inactive)
REMARK    1  A    between atoms: O2_2  and  C3_3 
REMARK    2  A    between atoms: C4_4  and  O5_5 
REMARK    3  A    between atoms: O5_5  and  C6_6 
REMARK    4  A    between atoms: C6_6  and  C7_7 
REMARK    5  A    between atoms: C20_20  and  N21_21 
REMARK    6  A    between atoms: N21_21  and  C22_22 
ROOT
ATOM      1  C3  ZIN AC000      -0.034  -0.507  -1.434  0.00  0.00     0.102 A 
ATOM      2  C4  ZIN AC000      -0.279  -1.867  -1.671  0.00  0.00     0.104 A 
ATOM      3  C15 ZIN AC000       0.250  -2.495  -2.777  0.00  0.00     0.072 A 
ATOM      4  C16 ZIN AC000       1.040  -1.765  -3.673  0.00  0.00     0.075 A 
ATOM      5  N17 ZIN AC000       1.577  -2.329  -4.766  0.00  0.00    -0.241 NA
ATOM      6  C18 ZIN AC000       2.313  -1.619  -5.587  0.00  0.00     0.236 A 
ATOM      7  N19 ZIN AC000       2.567  -0.334  -5.399  0.00  0.00    -0.224 NA
ATOM      8  C20 ZIN AC000       2.085   0.321  -4.351  0.00  0.00     0.142 A 
ATOM      9  C30 ZIN AC000       1.283  -0.391  -3.427  0.00  0.00     0.042 A 
ATOM     10  C31 ZIN AC000       0.729   0.225  -2.298  0.00  0.00     0.057 A 
ENDROOT
BRANCH   2  11
ATOM     11  O5  ZIN AC000      -1.045  -2.573  -0.799  0.00  0.00    -0.348 OA
BRANCH  11  12
ATOM     12  C6  ZIN AC000      -1.258  -3.955  -1.095  0.00  0.00     0.180 C 
BRANCH  12  13
ATOM     13  C7  ZIN AC000      -2.138  -4.579  -0.010  0.00  0.00     0.013 C 
ATOM     14  C14 ZIN AC000      -2.265  -6.085  -0.257  0.00  0.00     0.034 C 
ATOM     15  C13 ZIN AC000      -3.210  -6.690   0.784  0.00  0.00     0.234 C 
ATOM     16  N10 ZIN AC000      -4.532  -6.062   0.673  0.00  0.00    -0.075 N 
ATOM     17  C9  ZIN AC000      -4.430  -4.630   0.979  0.00  0.00     0.234 C 
ATOM     18  H11 ZIN AC000      -4.881  -6.180  -0.266  0.00  0.00     0.279 HD
ATOM     19  C12 ZIN AC000      -5.455  -6.699   1.621  0.00  0.00     0.269 C 
ATOM     20  C8  ZIN AC000      -3.532  -3.946  -0.055  0.00  0.00     0.034 C 
ENDBRANCH  12  13
ENDBRANCH  11  12
ENDBRANCH   2  11
BRANCH   1  21
ATOM     21  O2  ZIN AC000      -0.568   0.091  -0.336  0.00  0.00    -0.353 OA
ATOM     22  C1  ZIN AC000      -0.288   1.480  -0.153  0.00  0.00     0.210 C 
ENDBRANCH   1  21
BRANCH   8  23
ATOM     23  N21 ZIN AC000       2.357   1.662  -4.167  0.00  0.00    -0.338 N 
ATOM     24  H51 ZIN AC000       2.079   2.106  -3.351  0.00  0.00     0.167 HD
BRANCH  23  25
ATOM     25  C22 ZIN AC000       3.036   2.380  -5.158  0.00  0.00     0.072 A 
ATOM     26  C28 ZIN AC000       3.648   3.590  -4.846  0.00  0.00     0.144 A 
ATOM     27  C27 ZIN AC000       4.321   4.294  -5.827  0.00  0.00     0.063 A 
ATOM     28  F29 ZIN AC000       3.594   4.070  -3.585  0.00  0.00    -0.204 F 
ATOM     29  C25 ZIN AC000       4.377   3.802  -7.119  0.00  0.00     0.014 A 
ATOM     30  C24 ZIN AC000       3.764   2.602  -7.432  0.00  0.00     0.021 A 
ATOM     31 Br26 ZIN AC000       5.293   4.772  -8.460  0.00  0.00    -0.051 Br
ATOM     32  C23 ZIN AC000       3.094   1.891  -6.455  0.00  0.00     0.034 A 
ENDBRANCH  23  25
ENDBRANCH   8  23
TORSDOF 6
