REMARK  4 active torsions:
REMARK  status: ('A' for Active; 'I' for Inactive)
REMARK    1  A    between atoms: N1_1  and  N2_2 
REMARK    2  A    between atoms: N2_2  and  C3_3 
REMARK    3  A    between atoms: C3_3  and  C4_4 
REMARK    4  A    between atoms: C4_4  and  C5_5 
ROOT
ATOM      1  C4  <0> d          -1.300  -2.078   0.003  0.00  0.00     0.054 C 
ENDROOT
BRANCH   1   2
ATOM      2  C3  <0> d          -1.362  -0.549   0.012  0.00  0.00     0.109 C 
BRANCH   2   3
ATOM      3  N2  <0> d           0.002  -0.004   0.002  0.00  0.00    -0.263 NA
ATOM      4  H13 <0> d           0.526  -0.354  -0.786  0.00  0.00     0.140 HD
BRANCH   3   5
ATOM      5  N1  <0> d          -0.018   1.450   0.010  0.00  0.00    -0.271 NA
ATOM      6  H11 <0> d           0.919   1.824   0.003  0.00  0.00     0.137 HD
ATOM      7  H12 <0> d          -0.556   1.808  -0.764  0.00  0.00     0.137 HD
ENDBRANCH   3   5
ENDBRANCH   2   3
ENDBRANCH   1   2
BRANCH   1   8
ATOM      8  C5  <0> d          -2.700  -2.637   0.014  0.00  0.00    -0.057 A 
ATOM      9  C10 <0> d          -3.353  -2.887  -1.179  0.00  0.00     0.007 A 
ATOM     10  C9  <0> d          -4.635  -3.404  -1.169  0.00  0.00     0.001 A 
ATOM     11  C8  <0> d          -5.267  -3.662   0.033  0.00  0.00     0.000 A 
ATOM     12  C7  <0> d          -4.616  -3.408   1.225  0.00  0.00     0.001 A 
ATOM     13  C6  <0> d          -3.332  -2.895   1.216  0.00  0.00     0.007 A 
ENDBRANCH   1   8
TORSDOF 4
