REMARK  5 active torsions:
REMARK  status: ('A' for Active; 'I' for Inactive)
REMARK    1  A    between atoms: C3_3  and  C4_4 
REMARK    2  A    between atoms: C10_10  and  N12_11 
REMARK       I    between atoms: N12_11  and  C13_12 
REMARK    3  A    between atoms: C13_12  and  C15_14 
REMARK    4  A    between atoms: C15_14  and  N17_15 
REMARK    5  A    between atoms: C15_14  and  C21_19 
ROOT
ATOM      1  N12 <0> d          -0.509  -4.273  -1.897  0.00  0.00    -0.343 N 
ATOM      2  C13 <0> d          -0.884  -5.391  -2.548  0.00  0.00     0.253 C 
ATOM      3  O14 <0> d          -1.605  -6.199  -2.001  0.00  0.00    -0.271 OA
ATOM      4  H34 <0> d           0.068  -3.627  -2.334  0.00  0.00     0.163 HD
ENDROOT
BRANCH   1   5
ATOM      5  C10 <0> d          -0.971  -4.032  -0.528  0.00  0.00     0.210 C 
ATOM      6  C8  <0> d          -2.065  -2.996  -0.411  0.00  0.00     0.251 C 
ATOM      7  N7  <0> d          -1.266  -2.000  -0.052  0.00  0.00    -0.293 N 
ATOM      8  O9  <0> d          -3.264  -3.056  -0.585  0.00  0.00    -0.271 OA
ATOM      9  C3  <0> d          -1.183  -0.602   0.005  0.00  0.00     0.118 C 
ATOM     10  C27 <0> d          -0.179  -2.979   0.227  0.00  0.00     0.187 C 
ATOM     11  C2  <0> d           0.002  -0.004   0.002  0.00  0.00    -0.041 C 
ATOM     12  C1  <0> d          -0.018   1.503   0.010  0.00  0.00     0.047 C 
ATOM     13  C30 <0> d           1.353  -0.641  -0.014  0.00  0.00     0.112 C 
ATOM     14  S29 <0> d           1.315  -2.366  -0.621  0.00  0.00    -0.136 SA
BRANCH   9  15
ATOM     15  C4  <0> d          -2.412   0.205   0.068  0.00  0.00     0.227 C 
ATOM     16  O5  <0> d          -2.341   1.425   0.117  0.00  0.00    -0.643 OA
ATOM     17  O6  <0> d          -3.505  -0.345   0.070  0.00  0.00    -0.643 OA
ENDBRANCH   9  15
ENDBRANCH   1   5
BRANCH   2  18
ATOM     18  C15 <0> d          -0.409  -5.639  -3.956  0.00  0.00     0.307 C 
BRANCH  18  19
ATOM     19  N17 <0> d          -1.291  -6.617  -4.606  0.00  0.00    -0.062 N 
ATOM     20  H18 <0> d          -0.973  -6.783  -5.549  0.00  0.00     0.275 HD
ATOM     21  H19 <0> d          -1.273  -7.483  -4.088  0.00  0.00     0.275 HD
ATOM     22  H20 <0> d          -2.234  -6.258  -4.628  0.00  0.00     0.275 HD
ENDBRANCH  18  19
BRANCH  18  23
ATOM     23  C21 <0> d           0.999  -6.176  -3.924  0.00  0.00    -0.019 A 
ATOM     24  C26 <0> d           2.066  -5.333  -4.168  0.00  0.00     0.010 A 
ATOM     25  C25 <0> d           3.358  -5.824  -4.134  0.00  0.00     0.001 A 
ATOM     26  C24 <0> d           3.581  -7.162  -3.865  0.00  0.00     0.000 A 
ATOM     27  C23 <0> d           2.514  -8.007  -3.626  0.00  0.00     0.001 A 
ATOM     28  C22 <0> d           1.222  -7.514  -3.655  0.00  0.00     0.010 A 
ENDBRANCH  18  23
ENDBRANCH   2  18
TORSDOF 5
