REMARK  20 active torsions:
REMARK  status: ('A' for Active; 'I' for Inactive)
REMARK    1  A    between atoms: C2_2  and  O3_3 
REMARK    2  A    between atoms: O3_3  and  C4_4 
REMARK    3  A    between atoms: C7_7  and  C8_8 
REMARK    4  A    between atoms: C8_8  and  C9_9 
REMARK    5  A    between atoms: C9_9  and  C11_10 
REMARK    6  A    between atoms: C9_9  and  N29_28 
REMARK    7  A    between atoms: C11_10  and  N12_11 
REMARK    8  A    between atoms: N12_11  and  C13_12 
REMARK    9  A    between atoms: N12_11  and  C25_24 
REMARK   10  A    between atoms: C13_12  and  C14_13 
REMARK   11  A    between atoms: C14_13  and  N15_14 
REMARK   12  A    between atoms: N15_14  and  C17_16 
REMARK   13  A    between atoms: N15_14  and  C21_20 
REMARK   14  A    between atoms: C17_16  and  C18_17 
REMARK   15  A    between atoms: C21_20  and  C22_21 
REMARK   16  A    between atoms: C25_24  and  C26_25 
REMARK   17  A    between atoms: N29_28  and  C31_30 
REMARK   18  A    between atoms: N29_28  and  C35_34 
REMARK   19  A    between atoms: C31_30  and  C32_31 
REMARK   20  A    between atoms: C35_34  and  C36_35 
ROOT
ATOM      1  C9  ZIN AC000      -2.365  -7.855   1.460  0.00  0.00     0.222 C 
ENDROOT
BRANCH   1   2
ATOM      2  C8  ZIN AC000      -1.333  -7.506   0.387  0.00  0.00     0.073 C 
BRANCH   2   3
ATOM      3  C7  ZIN AC000      -0.650  -6.212   0.749  0.00  0.00    -0.056 A 
ATOM      4  C6  ZIN AC000       0.542  -6.234   1.450  0.00  0.00     0.010 A 
ATOM      5  C5  ZIN AC000       1.170  -5.049   1.782  0.00  0.00     0.037 A 
ATOM      6  C4  ZIN AC000       0.604  -3.837   1.413  0.00  0.00     0.068 A 
ATOM      7  C40 ZIN AC000      -0.595  -3.819   0.715  0.00  0.00     0.037 A 
ATOM      8  C39 ZIN AC000      -1.216  -5.006   0.380  0.00  0.00     0.010 A 
BRANCH   6   9
ATOM      9  O3  ZIN AC000       1.220  -2.671   1.740  0.00  0.00    -0.352 OA
BRANCH   9  10
ATOM     10  C2  ZIN AC000       2.451  -2.766   2.459  0.00  0.00     0.171 C 
ATOM     11  C1  ZIN AC000       2.991  -1.361   2.735  0.00  0.00     0.034 C 
ENDBRANCH   9  10
ENDBRANCH   6   9
ENDBRANCH   2   3
ENDBRANCH   1   2
BRANCH   1  12
ATOM     12  C11 ZIN AC000      -2.873  -9.281   1.234  0.00  0.00     0.306 C 
BRANCH  12  13
ATOM     13  N12 ZIN AC000      -3.946  -9.576   2.193  0.00  0.00     0.102 N 
BRANCH  13  14
ATOM     14  C13 ZIN AC000      -4.704 -10.767   1.786  0.00  0.00     0.300 C 
BRANCH  14  15
ATOM     15  C14 ZIN AC000      -5.486 -10.460   0.507  0.00  0.00     0.266 C 
BRANCH  15  16
ATOM     16  N15 ZIN AC000      -6.332 -11.611   0.163  0.00  0.00    -0.050 N 
ATOM     17  H16 ZIN AC000      -5.761 -12.439   0.092  0.00  0.00     0.281 HD
BRANCH  16  18
ATOM     18  C17 ZIN AC000      -7.346 -11.803   1.208  0.00  0.00     0.348 C 
BRANCH  18  19
ATOM     19  C18 ZIN AC000      -8.229 -10.584   1.282  0.00  0.00     0.199 C 
ATOM     20  O19 ZIN AC000      -7.969  -9.601   0.608  0.00  0.00    -0.647 OA
ATOM     21  O20 ZIN AC000      -9.203 -10.580   2.015  0.00  0.00    -0.647 OA
ENDBRANCH  18  19
ENDBRANCH  16  18
BRANCH  16  22
ATOM     22  C21 ZIN AC000      -6.996 -11.363  -1.124  0.00  0.00     0.348 C 
BRANCH  22  23
ATOM     23  C22 ZIN AC000      -7.728 -12.606  -1.559  0.00  0.00     0.199 C 
ATOM     24  O23 ZIN AC000      -7.711 -13.601  -0.856  0.00  0.00    -0.647 OA
ATOM     25  O24 ZIN AC000      -8.338 -12.616  -2.615  0.00  0.00    -0.647 OA
ENDBRANCH  22  23
ENDBRANCH  16  22
ENDBRANCH  15  16
ENDBRANCH  14  15
ENDBRANCH  13  14
BRANCH  13  26
ATOM     26  C25 ZIN AC000      -3.409  -9.733   3.552  0.00  0.00     0.385 C 
BRANCH  26  27
ATOM     27  C26 ZIN AC000      -4.545  -9.750   4.542  0.00  0.00     0.202 C 
ATOM     28  O27 ZIN AC000      -5.684  -9.531   4.167  0.00  0.00    -0.647 OA
ATOM     29  O28 ZIN AC000      -4.325  -9.983   5.718  0.00  0.00    -0.647 OA
ENDBRANCH  26  27
ENDBRANCH  13  26
ENDBRANCH  12  13
ENDBRANCH   1  12
BRANCH   1  30
ATOM     30  N29 ZIN AC000      -3.491  -6.916   1.381  0.00  0.00    -0.046 N 
ATOM     31  H30 ZIN AC000      -3.150  -6.003   1.118  0.00  0.00     0.281 HD
BRANCH  30  32
ATOM     32  C31 ZIN AC000      -4.453  -7.388   0.376  0.00  0.00     0.348 C 
BRANCH  32  33
ATOM     33  C32 ZIN AC000      -4.006  -6.945  -0.994  0.00  0.00     0.199 C 
ATOM     34  O33 ZIN AC000      -3.107  -6.129  -1.108  0.00  0.00    -0.647 OA
ATOM     35  O34 ZIN AC000      -4.544  -7.402  -1.988  0.00  0.00    -0.647 OA
ENDBRANCH  32  33
ENDBRANCH  30  32
BRANCH  30  36
ATOM     36  C35 ZIN AC000      -4.153  -6.832   2.690  0.00  0.00     0.348 C 
BRANCH  36  37
ATOM     37  C36 ZIN AC000      -3.208  -6.221   3.692  0.00  0.00     0.199 C 
ATOM     38  O37 ZIN AC000      -2.130  -5.783   3.326  0.00  0.00    -0.647 OA
ATOM     39  O38 ZIN AC000      -3.520  -6.166   4.869  0.00  0.00    -0.647 OA
ENDBRANCH  36  37
ENDBRANCH  30  36
ENDBRANCH   1  30
TORSDOF 20
