REMARK  4 active torsions:
REMARK  status: ('A' for Active; 'I' for Inactive)
REMARK    1  A    between atoms: C24_20  and  C26_21 
REMARK       I    between atoms: C26_21  and  N28_23 
REMARK    2  A    between atoms: N28_23  and  C29_24 
REMARK    3  A    between atoms: C31_26  and  C32_27 
REMARK    4  A    between atoms: C38_33  and  C39_34 
ROOT
ATOM      1  C1  ZIN AC000      -0.014   1.505   0.018  0.00  0.00     0.016 C 
ATOM      2  C2  ZIN AC000       0.012  -0.025  -0.001  0.00  0.00    -0.028 C 
ATOM      3  C3  ZIN AC000      -1.393  -0.564   0.186  0.00  0.00     0.011 C 
ATOM      4  C4  ZIN AC000      -1.949   0.048   1.483  0.00  0.00     0.007 C 
ATOM      5  C5  ZIN AC000      -1.056  -0.276   2.676  0.00  0.00     0.004 C 
ATOM      6  C7  ZIN AC000       0.393   0.179   2.434  0.00  0.00    -0.004 C 
ATOM      7  C9  ZIN AC000       1.255  -0.190   3.641  0.00  0.00     0.007 C 
ATOM      8  C10 ZIN AC000       0.704   0.489   4.900  0.00  0.00     0.026 C 
ATOM      9  C11 ZIN AC000      -0.733   0.026   5.127  0.00  0.00     0.097 C 
ATOM     10  N13 ZIN AC000      -1.298   0.634   6.330  0.00  0.00    -0.352 N 
ATOM     11  C14 ZIN AC000      -2.640   0.727   6.459  0.00  0.00     0.241 C 
ATOM     12  O15 ZIN AC000      -3.126   1.261   7.437  0.00  0.00    -0.269 OA
ATOM     13  C16 ZIN AC000      -3.509   0.176   5.403  0.00  0.00     0.071 C 
ATOM     14  C17 ZIN AC000      -3.016   0.021   4.172  0.00  0.00    -0.009 C 
ATOM     15  C18 ZIN AC000      -1.575   0.426   3.929  0.00  0.00    -0.002 C 
ATOM     16  C19 ZIN AC000      -1.504   1.938   3.704  0.00  0.00     0.022 C 
ATOM     17  C20 ZIN AC000       0.874  -0.550   1.179  0.00  0.00    -0.001 C 
ATOM     18  C22 ZIN AC000       2.295  -0.215   0.713  0.00  0.00     0.007 C 
ATOM     19  C23 ZIN AC000       2.264  -0.593  -0.794  0.00  0.00     0.015 C 
ATOM     20  C24 ZIN AC000       0.769  -0.512  -1.232  0.00  0.00     0.086 C 
ATOM     21  H54 ZIN AC000      -0.714   0.968   7.030  0.00  0.00     0.163 HD
ENDROOT
BRANCH  20  22
ATOM     22  C26 ZIN AC000       0.612   0.458  -2.374  0.00  0.00     0.227 C 
ATOM     23  O27 ZIN AC000       1.417   1.353  -2.526  0.00  0.00    -0.273 OA
ATOM     24  N28 ZIN AC000      -0.424   0.332  -3.228  0.00  0.00    -0.326 N 
ATOM     25  H64 ZIN AC000      -1.111  -0.332  -3.062  0.00  0.00     0.169 HD
BRANCH  24  26
ATOM     26  C29 ZIN AC000      -0.507   1.159  -4.354  0.00  0.00     0.050 A 
ATOM     27  C38 ZIN AC000      -1.740   1.413  -4.940  0.00  0.00     0.074 A 
ATOM     28  C37 ZIN AC000      -1.820   2.235  -6.047  0.00  0.00     0.019 A 
ATOM     29  C36 ZIN AC000      -0.672   2.794  -6.580  0.00  0.00     0.017 A 
ATOM     30  C31 ZIN AC000       0.557   2.538  -6.001  0.00  0.00     0.050 A 
ATOM     31  C30 ZIN AC000       0.643   1.722  -4.890  0.00  0.00     0.046 A 
BRANCH  27  32
ATOM     32  C39 ZIN AC000      -2.991   0.805  -4.361  0.00  0.00     0.419 C 
ATOM     33  F40 ZIN AC000      -4.099   1.214  -5.110  0.00  0.00    -0.166 F 
ATOM     34  F41 ZIN AC000      -2.892  -0.590  -4.399  0.00  0.00    -0.166 F 
ATOM     35  F42 ZIN AC000      -3.143   1.225  -3.035  0.00  0.00    -0.166 F 
ENDBRANCH  27  32
BRANCH  30  36
ATOM     36  C32 ZIN AC000       1.805   3.149  -6.584  0.00  0.00     0.417 C 
ATOM     37  F33 ZIN AC000       2.340   2.288  -7.548  0.00  0.00    -0.166 F 
ATOM     38  F34 ZIN AC000       1.489   4.376  -7.179  0.00  0.00    -0.166 F 
ATOM     39  F35 ZIN AC000       2.744   3.352  -5.567  0.00  0.00    -0.166 F 
ENDBRANCH  30  36
ENDBRANCH  24  26
ENDBRANCH  20  22
TORSDOF 4
