REMARK  2 active torsions:
REMARK  status: ('A' for Active; 'I' for Inactive)
REMARK    1  A    between atoms: C8_8  and  O9_9 
REMARK    2  A    between atoms: O9_9  and  C10_10 
ROOT
ATOM      1  O9  <0> d           2.367   1.408  -0.019  0.00  0.00    -0.306 OA
ENDROOT
BRANCH   1   2
ATOM      2  C8  <0> d           1.178   2.068  -0.011  0.00  0.00     0.112 A 
ATOM      3  C2  <0> d           0.602   2.481  -1.210  0.00  0.00     0.142 A 
ATOM      4  O1  <0> d           1.225   2.220  -2.390  0.00  0.00    -0.189 OA
ATOM      5  C3  <0> d          -0.609   3.153  -1.197  0.00  0.00     0.066 A 
ATOM      6  C4  <0> d          -1.241   3.417   0.005  0.00  0.00     0.036 A 
ATOM      7 Cl5  <0> d          -2.759   4.260   0.019  0.00  0.00    -0.084 Cl
ATOM      8  C6  <0> d          -0.666   3.011   1.196  0.00  0.00     0.027 A 
ATOM      9  C7  <0> d           0.542   2.340   1.190  0.00  0.00     0.042 A 
ENDBRANCH   1   2
BRANCH   1  10
ATOM     10  C10 <0> d           3.504   2.143  -0.140  0.00  0.00     0.098 A 
ATOM     11  C16 <0> d           4.733   1.508  -0.264  0.00  0.00     0.069 A 
ATOM     12  C15 <0> d           5.887   2.257  -0.393  0.00  0.00     0.050 A 
ATOM     13 Cl17 <0> d           4.817  -0.226  -0.272  0.00  0.00    -0.081 Cl
ATOM     14  C13 <0> d           5.819   3.639  -0.388  0.00  0.00     0.035 A 
ATOM     15  C12 <0> d           4.597   4.274  -0.258  0.00  0.00     0.026 A 
ATOM     16 Cl14 <0> d           7.271   4.579  -0.543  0.00  0.00    -0.084 Cl
ATOM     17  C11 <0> d           3.440   3.529  -0.134  0.00  0.00     0.041 A 
ENDBRANCH   1  10
TORSDOF 2
