REMARK  3 active torsions:
REMARK  status: ('A' for Active; 'I' for Inactive)
REMARK    1  A    between atoms: C2_2  and  C3_3 
REMARK    2  A    between atoms: C8_8  and  N9_9 
REMARK    3  A    between atoms: C12_12  and  N13_13 
ROOT
ATOM      1  C3  ZIN AC000       0.588  -0.588  -1.266  0.00  0.00    -0.036 A 
ATOM      2  C4  ZIN AC000      -0.221  -0.818  -2.355  0.00  0.00     0.025 A 
ATOM      3  C5  ZIN AC000       0.343  -1.175  -3.583  0.00  0.00     0.023 A 
ATOM      4  C6  ZIN AC000       1.725  -1.307  -3.717  0.00  0.00    -0.028 A 
ATOM      5  C7  ZIN AC000       2.529  -1.068  -2.616  0.00  0.00     0.033 A 
ATOM      6  C8  ZIN AC000       1.969  -0.705  -1.398  0.00  0.00     0.017 A 
ATOM      7  C22 ZIN AC000       2.395  -1.710  -5.003  0.00  0.00     0.024 C 
ATOM      8  C23 ZIN AC000       3.604  -0.803  -5.239  0.00  0.00     0.027 C 
ATOM      9  C24 ZIN AC000       2.876  -3.158  -4.880  0.00  0.00     0.027 C 
ATOM     10  C25 ZIN AC000       1.466  -1.604  -6.179  0.00  0.00     0.037 A 
ATOM     11  C26 ZIN AC000       0.100  -1.472  -6.059  0.00  0.00     0.051 A 
ATOM     12  C27 ZIN AC000      -0.447  -1.411  -7.399  0.00  0.00     0.007 A 
ATOM     13  C28 ZIN AC000      -1.749  -1.288  -7.891  0.00  0.00     0.016 A 
ATOM     14  C29 ZIN AC000      -1.904  -1.262  -9.252  0.00  0.00     0.024 A 
ATOM     15  C30 ZIN AC000      -0.813  -1.356 -10.121  0.00  0.00     0.046 A 
ATOM     16  C31 ZIN AC000      -1.043  -1.322 -11.534  0.00  0.00     0.099 C 
ATOM     17  N32 ZIN AC000      -1.225  -1.295 -12.655  0.00  0.00    -0.191 NA
ATOM     18  C33 ZIN AC000       0.499  -1.481  -9.648  0.00  0.00     0.053 A 
ATOM     19  C34 ZIN AC000       0.670  -1.508  -8.270  0.00  0.00     0.045 A 
ATOM     20  N35 ZIN AC000       1.794  -1.620  -7.494  0.00  0.00    -0.357 N 
ATOM     21  C36 ZIN AC000      -0.554  -1.405  -4.744  0.00  0.00     0.195 C 
ATOM     22  O37 ZIN AC000      -1.758  -1.531  -4.614  0.00  0.00    -0.287 OA
ATOM     23  H71 ZIN AC000       2.698  -1.699  -7.838  0.00  0.00     0.166 HD
ENDROOT
BRANCH   1  24
ATOM     24  C2  ZIN AC000      -0.017  -0.205   0.060  0.00  0.00     0.036 C 
ATOM     25  C1  ZIN AC000      -0.028   1.319   0.195  0.00  0.00     0.010 C 
ENDBRANCH   1  24
BRANCH   6  26
ATOM     26  N9  ZIN AC000       2.791  -0.469  -0.301  0.00  0.00    -0.283 NA
ATOM     27  C21 ZIN AC000       3.491  -1.694   0.106  0.00  0.00     0.098 C 
ATOM     28  C20 ZIN AC000       4.270  -1.434   1.397  0.00  0.00     0.048 C 
ATOM     29  C12 ZIN AC000       5.276  -0.304   1.161  0.00  0.00     0.190 C 
ATOM     30  C11 ZIN AC000       4.527   0.946   0.691  0.00  0.00     0.048 C 
ATOM     31  C10 ZIN AC000       3.740   0.617  -0.580  0.00  0.00     0.098 C 
BRANCH  29  32
ATOM     32  N13 ZIN AC000       5.986  -0.009   2.412  0.00  0.00    -0.063 N 
ATOM     33  H14 ZIN AC000       5.322   0.269   3.119  0.00  0.00     0.280 HD
ATOM     34  C19 ZIN AC000       6.705  -1.210   2.862  0.00  0.00     0.261 C 
ATOM     35  C18 ZIN AC000       7.444  -0.900   4.166  0.00  0.00     0.195 C 
ATOM     36  O17 ZIN AC000       8.336   0.198   3.954  0.00  0.00    -0.388 OA
ATOM     37  C16 ZIN AC000       7.685   1.385   3.492  0.00  0.00     0.195 C 
ATOM     38  C15 ZIN AC000       6.946   1.080   2.186  0.00  0.00     0.261 C 
ENDBRANCH  29  32
ENDBRANCH   6  26
TORSDOF 3
