REMARK  0 active torsions:
REMARK  status: ('A' for Active; 'I' for Inactive)
ROOT
ATOM      1  C1  ZIN AC000      -0.016   1.309   0.009  0.00  0.00     0.136 A 
ATOM      2  C2  ZIN AC000       1.175   2.039   0.002  0.00  0.00     0.136 A 
ATOM      3  N3  ZIN AC000       2.337   1.426  -0.012  0.00  0.00    -0.257 NA
ATOM      4  C4  ZIN AC000       2.381   0.090  -0.017  0.00  0.00     0.085 A 
ATOM      5  C5  ZIN AC000       3.608  -0.596  -0.026  0.00  0.00     0.042 A 
ATOM      6  C6  ZIN AC000       3.623  -1.956  -0.032  0.00  0.00    -0.043 A 
ATOM      7  C7  ZIN AC000       2.431  -2.686  -0.032  0.00  0.00    -0.043 A 
ATOM      8  C8  ZIN AC000       1.226  -2.055  -0.023  0.00  0.00     0.042 A 
ATOM      9  C9  ZIN AC000       1.172  -0.651  -0.013  0.00  0.00     0.085 A 
ATOM     10  N10 ZIN AC000       0.002  -0.004   0.002  0.00  0.00    -0.257 NA
ATOM     11  C11 ZIN AC000       2.773  -4.170  -0.043  0.00  0.00     0.045 C 
ATOM     12  C13 ZIN AC000       4.176  -4.196  -0.714  0.00  0.00     0.022 C 
ATOM     13  C14 ZIN AC000       4.789  -2.935  -0.039  0.00  0.00     0.045 C 
ATOM     14  C16 ZIN AC000       5.079  -3.333   1.421  0.00  0.00     0.241 C 
ATOM     15  N17 ZIN AC000       3.808  -3.574   2.114  0.00  0.00    -0.074 N 
ATOM     16  H18 ZIN AC000       3.998  -3.868   3.060  0.00  0.00     0.277 HD
ATOM     17  H19 ZIN AC000       3.275  -2.717   2.135  0.00  0.00     0.277 HD
ATOM     18  C20 ZIN AC000       2.973  -4.596   1.424  0.00  0.00     0.241 C 
ENDROOT
TORSDOF 0
