REMARK  9 active torsions:
REMARK  status: ('A' for Active; 'I' for Inactive)
REMARK       I    between atoms: C2_2  and  N3_3 
REMARK       I    between atoms: C2_2  and  N4_4 
REMARK    1  A    between atoms: N4_4  and  C5_5 
REMARK    2  A    between atoms: C7_7  and  C8_8 
REMARK    3  A    between atoms: C8_8  and  S9_9 
REMARK    4  A    between atoms: S9_9  and  C10_10 
REMARK    5  A    between atoms: C10_10  and  C11_11 
REMARK    6  A    between atoms: C11_11  and  C12_12 
REMARK    7  A    between atoms: C12_12  and  N14_14 
REMARK    8  A    between atoms: N14_14  and  S15_15 
REMARK    9  A    between atoms: S15_15  and  N16_16 
ROOT
ATOM      1  C8  ZIN AC000      -3.142  -5.157   0.065  0.00  0.00     0.133 C 
ENDROOT
BRANCH   1   2
ATOM      2  C7  ZIN AC000      -2.020  -4.154   0.140  0.00  0.00     0.053 A 
ATOM      3  N6  ZIN AC000      -2.217  -2.853   0.025  0.00  0.00    -0.227 NA
ATOM      4  C5  ZIN AC000      -1.171  -2.092   0.107  0.00  0.00     0.185 A 
ATOM      5  S20 ZIN AC000       0.230  -3.042   0.344  0.00  0.00    -0.061 SA
ATOM      6  C19 ZIN AC000      -0.748  -4.508   0.327  0.00  0.00     0.081 A 
BRANCH   4   7
ATOM      7  N4  ZIN AC000      -1.185  -0.706   0.009  0.00  0.00    -0.167 N 
ATOM      8  C2  ZIN AC000      -0.000  -0.005  -0.006  0.00  0.00     0.693 C 
ATOM      9  N1  ZIN AC000       1.135  -0.644  -0.036  0.00  0.00    -0.118 NA
ATOM     10  N3  ZIN AC000      -0.015   1.370   0.011  0.00  0.00    -0.233 N 
ATOM     11  H21 ZIN AC000       1.970  -0.149  -0.046  0.00  0.00     0.206 HD
ATOM     12  H22 ZIN AC000       0.818   1.864   0.074  0.00  0.00     0.174 HD
ATOM     13  H23 ZIN AC000      -0.858   1.847  -0.040  0.00  0.00     0.174 HD
ATOM     14  H24 ZIN AC000      -2.030  -0.233  -0.048  0.00  0.00     0.186 HD
ENDBRANCH   4   7
ENDBRANCH   1   2
BRANCH   1  15
ATOM     15  S9  ZIN AC000      -3.377  -5.675  -1.657  0.00  0.00    -0.163 SA
BRANCH  15  16
ATOM     16  C10 ZIN AC000      -4.744  -6.861  -1.544  0.00  0.00     0.082 C 
BRANCH  16  17
ATOM     17  C11 ZIN AC000      -5.069  -7.400  -2.939  0.00  0.00     0.089 C 
BRANCH  17  18
ATOM     18  C12 ZIN AC000      -6.205  -8.385  -2.845  0.00  0.00     0.107 C 
ATOM     19  N13 ZIN AC000      -6.739  -8.649  -1.697  0.00  0.00    -0.287 NA
ATOM     20  H31 ZIN AC000      -7.471  -9.283  -1.636  0.00  0.00     0.188 HD
BRANCH  18  21
ATOM     21  N14 ZIN AC000      -6.673  -9.002  -3.976  0.00  0.00    -0.256 N 
ATOM     22  H32 ZIN AC000      -6.272  -8.804  -4.837  0.00  0.00     0.181 HD
BRANCH  21  23
ATOM     23  S15 ZIN AC000      -7.921 -10.085  -3.872  0.00  0.00     0.318 S 
ATOM     24  O17 ZIN AC000      -8.190 -10.515  -5.199  0.00  0.00    -0.183 OA
ATOM     25  O18 ZIN AC000      -7.591 -10.978  -2.817  0.00  0.00    -0.183 OA
BRANCH  23  26
ATOM     26  N16 ZIN AC000      -9.258  -9.245  -3.373  0.00  0.00    -0.311 N 
ATOM     27  H33 ZIN AC000     -10.143  -9.534  -3.648  0.00  0.00     0.170 HD
ATOM     28  H34 ZIN AC000      -9.157  -8.465  -2.806  0.00  0.00     0.170 HD
ENDBRANCH  23  26
ENDBRANCH  21  23
ENDBRANCH  18  21
ENDBRANCH  17  18
ENDBRANCH  16  17
ENDBRANCH  15  16
ENDBRANCH   1  15
TORSDOF 9
