REMARK  1 active torsions:
REMARK  status: ('A' for Active; 'I' for Inactive)
REMARK    1  A    between atoms: C6_6  and  C8_8 
ROOT
ATOM      1  C1  <0> d           0.126   1.305  -0.533  0.00  0.00     0.162 C 
ATOM      2  N2  <0> d           0.063  -0.143  -0.319  0.00  0.00    -0.292 N 
ATOM      3  C3  <0> d          -0.068  -1.018  -1.324  0.00  0.00     0.227 A 
ATOM      4  O4  <0> d          -0.148  -0.732  -2.499  0.00  0.00    -0.273 OA
ATOM      5  C5  <0> d          -0.101  -2.422  -0.760  0.00  0.00     0.127 A 
ATOM      6  C6  <0> d           0.035  -2.204   0.761  0.00  0.00     0.073 A 
ATOM      7  C7  <0> d          -1.199  -2.733   1.494  0.00  0.00     0.031 C 
ATOM      8  C14 <0> d           0.136  -0.700   0.896  0.00  0.00     0.239 A 
ATOM      9  O15 <0> d           0.257  -0.095   1.939  0.00  0.00    -0.272 OA
ENDROOT
BRANCH   6  10
ATOM     10  C8  <0> d           1.284  -2.866   1.282  0.00  0.00    -0.040 A 
ATOM     11  C13 <0> d           2.527  -2.413   0.880  0.00  0.00     0.008 A 
ATOM     12  C12 <0> d           3.672  -3.018   1.361  0.00  0.00     0.001 A 
ATOM     13  C11 <0> d           3.576  -4.083   2.238  0.00  0.00     0.000 A 
ATOM     14  C10 <0> d           2.333  -4.539   2.637  0.00  0.00     0.001 A 
ATOM     15  C9  <0> d           1.188  -3.931   2.159  0.00  0.00     0.008 A 
ENDBRANCH   6  10
TORSDOF 1
