REMARK  6 active torsions:
REMARK  status: ('A' for Active; 'I' for Inactive)
REMARK    1  A    between atoms: O2_2  and  C3_3 
REMARK    2  A    between atoms: C3_3  and  C5_5 
REMARK    3  A    between atoms: C14_11  and  C16_12 
REMARK    4  A    between atoms: N23_19  and  C25_21 
REMARK    5  A    between atoms: C25_21  and  C26_22 
REMARK    6  A    between atoms: C26_22  and  C27_23 
ROOT
ATOM      1  C5  ZIN AC000       0.804  -3.836  -0.590  0.00  0.00     0.125 C 
ATOM      2  C7  ZIN AC000       1.467  -3.894  -1.975  0.00  0.00     0.203 C 
ATOM      3  C9  ZIN AC000       0.539  -4.703  -2.910  0.00  0.00     0.036 C 
ATOM      4  C10 ZIN AC000      -0.426  -3.659  -3.510  0.00  0.00     0.035 C 
ATOM      5  C11 ZIN AC000       0.007  -2.313  -2.882  0.00  0.00     0.189 C 
ATOM      6  C13 ZIN AC000      -0.774  -2.134  -1.571  0.00  0.00     0.043 C 
ATOM      7  C14 ZIN AC000      -0.662  -3.427  -0.756  0.00  0.00     0.036 C 
ATOM      8  N23 ZIN AC000       1.453  -2.513  -2.528  0.00  0.00    -0.062 N 
ATOM      9  H24 ZIN AC000       2.032  -2.452  -3.352  0.00  0.00     0.280 HD
ENDROOT
BRANCH   7  10
ATOM     10  C16 ZIN AC000      -1.296  -3.224   0.597  0.00  0.00    -0.053 A 
ATOM     11  C22 ZIN AC000      -1.308  -4.256   1.516  0.00  0.00     0.009 A 
ATOM     12  C21 ZIN AC000      -1.884  -4.068   2.759  0.00  0.00     0.019 A 
ATOM     13  C19 ZIN AC000      -2.458  -2.851   3.077  0.00  0.00     0.006 A 
ATOM     14  C18 ZIN AC000      -2.451  -1.820   2.155  0.00  0.00     0.019 A 
ATOM     15  I20 ZIN AC000      -3.340  -2.568   4.957  0.00  0.00    -0.045 I 
ATOM     16  C17 ZIN AC000      -1.870  -2.007   0.915  0.00  0.00     0.009 A 
ENDBRANCH   7  10
BRANCH   1  17
ATOM     17  C3  ZIN AC000       1.516  -2.824   0.269  0.00  0.00     0.265 C 
ATOM     18  O4  ZIN AC000       2.720  -2.861   0.375  0.00  0.00    -0.265 OA
BRANCH  17  19
ATOM     19  O2  ZIN AC000       0.815  -1.881   0.917  0.00  0.00    -0.326 OA
ATOM     20  C1  ZIN AC000       1.567  -0.938   1.726  0.00  0.00     0.213 C 
ENDBRANCH  17  19
ENDBRANCH   1  17
BRANCH   8  21
ATOM     21  C25 ZIN AC000       1.880  -1.531  -1.522  0.00  0.00     0.238 C 
BRANCH  21  22
ATOM     22  C26 ZIN AC000       2.107  -0.177  -2.196  0.00  0.00     0.059 C 
BRANCH  22  23
ATOM     23  C27 ZIN AC000       2.551   0.846  -1.149  0.00  0.00     0.223 C 
ATOM     24  F28 ZIN AC000       2.759   2.085  -1.765  0.00  0.00    -0.255 F 
ENDBRANCH  22  23
ENDBRANCH  21  22
ENDBRANCH   8  21
TORSDOF 6
