REMARK  6 active torsions:
REMARK  status: ('A' for Active; 'I' for Inactive)
REMARK       I    between atoms: N2_2  and  C3_3 
REMARK    1  A    between atoms: C3_3  and  C5_5 
REMARK    2  A    between atoms: C7_7  and  O8_8 
REMARK    3  A    between atoms: O8_8  and  C9_9 
REMARK    4  A    between atoms: C12_12  and  N13_13 
REMARK       I    between atoms: N13_13  and  C14_14 
REMARK       I    between atoms: C14_14  and  N16_16 
REMARK    5  A    between atoms: N16_16  and  C17_17 
REMARK    6  A    between atoms: C22_22  and  C23_23 
ROOT
ATOM      1  C9  <0> d           1.861  -6.268  -3.089  0.00  0.00     0.076 A 
ATOM      2  C10 <0> d           1.253  -6.992  -2.073  0.00  0.00     0.039 A 
ATOM      3  C11 <0> d           1.309  -8.372  -2.079  0.00  0.00     0.032 A 
ATOM      4  C12 <0> d           1.973  -9.035  -3.103  0.00  0.00     0.036 A 
ATOM      5  C28 <0> d           2.580  -8.310  -4.119  0.00  0.00     0.032 A 
ATOM      6  C29 <0> d           2.520  -6.931  -4.115  0.00  0.00     0.039 A 
ENDROOT
BRANCH   4   7
ATOM      7  N13 <0> d           2.029 -10.435  -3.110  0.00  0.00    -0.309 N 
ATOM      8  C14 <0> d           0.982 -11.154  -2.659  0.00  0.00     0.325 C 
ATOM      9  O15 <0> d           0.022 -10.589  -2.170  0.00  0.00    -0.247 OA
ATOM     10  N16 <0> d           0.999 -12.498  -2.750  0.00  0.00    -0.309 N 
ATOM     11  H41 <0> d           1.795 -12.953  -3.066  0.00  0.00     0.170 HD
ATOM     12  H40 <0> d           2.822 -10.887  -3.439  0.00  0.00     0.170 HD
BRANCH  10  13
ATOM     13  C17 <0> d          -0.133 -13.238  -2.388  0.00  0.00     0.037 A 
ATOM     14  C27 <0> d           0.012 -14.484  -1.790  0.00  0.00     0.047 A 
ATOM     15  C22 <0> d          -1.106 -15.210  -1.430  0.00  0.00     0.071 A 
ATOM     16  C20 <0> d          -2.371 -14.702  -1.673  0.00  0.00     0.049 A 
ATOM     17  C19 <0> d          -2.518 -13.464  -2.273  0.00  0.00     0.027 A 
ATOM     18 Cl21 <0> d          -3.774 -15.620  -1.225  0.00  0.00    -0.083 Cl
ATOM     19  C18 <0> d          -1.403 -12.731  -2.631  0.00  0.00     0.031 A 
BRANCH  15  20
ATOM     20  C23 <0> d          -0.950 -16.559  -0.778  0.00  0.00     0.419 C 
ATOM     21  F24 <0> d           0.411 -16.855  -0.638  0.00  0.00    -0.166 F 
ATOM     22  F25 <0> d          -1.555 -16.540   0.484  0.00  0.00    -0.166 F 
ATOM     23  F26 <0> d          -1.560 -17.535  -1.573  0.00  0.00    -0.166 F 
ENDBRANCH  15  20
ENDBRANCH  10  13
ENDBRANCH   4   7
BRANCH   1  24
ATOM     24  O8  <0> d           1.806  -4.910  -3.082  0.00  0.00    -0.311 OA
BRANCH  24  25
ATOM     25  C7  <0> d           2.607  -4.244  -2.212  0.00  0.00     0.079 A 
ATOM     26  C6  <0> d           3.382  -4.936  -1.284  0.00  0.00     0.074 A 
ATOM     27  C5  <0> d           4.189  -4.215  -0.410  0.00  0.00     0.126 A 
ATOM     28  N32 <0> d           4.217  -2.888  -0.454  0.00  0.00    -0.255 NA
ATOM     29  C31 <0> d           3.499  -2.208  -1.322  0.00  0.00     0.120 A 
ATOM     30  C30 <0> d           2.673  -2.854  -2.224  0.00  0.00     0.056 A 
BRANCH  27  31
ATOM     31  C3  <0> d           5.020  -4.934   0.584  0.00  0.00     0.269 C 
ATOM     32  N2  <0> d           5.800  -4.242   1.438  0.00  0.00    -0.360 N 
ATOM     33  C1  <0> d           6.621  -4.953   2.420  0.00  0.00     0.149 C 
ATOM     34  H36 <0> d           5.817  -3.273   1.402  0.00  0.00     0.162 HD
ATOM     35  O4  <0> d           4.999  -6.149   0.629  0.00  0.00    -0.266 OA
ENDBRANCH  27  31
ENDBRANCH  24  25
ENDBRANCH   1  24
TORSDOF 6
