REMARK  4 active torsions:
REMARK  status: ('A' for Active; 'I' for Inactive)
REMARK    1  A    between atoms: O2_2  and  C3_3 
REMARK    2  A    between atoms: C8_8  and  O9_9 
REMARK    3  A    between atoms: C16_15  and  C18_16 
REMARK    4  A    between atoms: C18_16  and  C19_17 
ROOT
ATOM      1  C3  ZIN AC000       1.276  -2.529  -0.137  0.00  0.00     0.102 A 
ATOM      2  C4  ZIN AC000       1.613  -1.539  -1.043  0.00  0.00     0.047 A 
ATOM      3  C5  ZIN AC000       2.132  -1.873  -2.285  0.00  0.00    -0.045 A 
ATOM      4  C6  ZIN AC000       2.314  -3.197  -2.624  0.00  0.00    -0.018 A 
ATOM      5  C7  ZIN AC000       1.979  -4.193  -1.717  0.00  0.00     0.049 A 
ATOM      6  C8  ZIN AC000       1.466  -3.865  -0.475  0.00  0.00     0.102 A 
ATOM      7  C11 ZIN AC000       2.868  -3.605  -3.963  0.00  0.00     0.228 C 
ATOM      8  C13 ZIN AC000       3.869  -4.751  -3.768  0.00  0.00     0.116 C 
ATOM      9  C14 ZIN AC000       4.477  -5.081  -5.115  0.00  0.00     0.135 C 
ATOM     10  O15 ZIN AC000       4.547  -6.221  -5.507  0.00  0.00    -0.297 OA
ATOM     11  C16 ZIN AC000       4.993  -3.930  -5.954  0.00  0.00     0.081 C 
ATOM     12  C22 ZIN AC000       3.912  -2.844  -5.993  0.00  0.00     0.247 C 
ATOM     13  N23 ZIN AC000       3.553  -2.485  -4.612  0.00  0.00    -0.061 N 
ATOM     14  H24 ZIN AC000       4.389  -2.244  -4.100  0.00  0.00     0.280 HD
ATOM     15  C25 ZIN AC000       2.643  -1.331  -4.630  0.00  0.00     0.240 C 
ATOM     16  C26 ZIN AC000       2.489  -0.763  -3.241  0.00  0.00     0.067 C 
ENDROOT
BRANCH  11  17
ATOM     17  C18 ZIN AC000       5.288  -4.418  -7.374  0.00  0.00     0.017 C 
BRANCH  17  18
ATOM     18  C19 ZIN AC000       5.941  -3.290  -8.175  0.00  0.00    -0.022 C 
ATOM     19  C20 ZIN AC000       7.313  -2.969  -7.580  0.00  0.00     0.009 C 
ATOM     20  C21 ZIN AC000       6.106  -3.728  -9.631  0.00  0.00     0.009 C 
ENDBRANCH  17  18
ENDBRANCH  11  17
BRANCH   6  21
ATOM     21  O9  ZIN AC000       1.140  -4.846   0.409  0.00  0.00    -0.353 OA
ATOM     22  C10 ZIN AC000       1.353  -6.195  -0.011  0.00  0.00     0.210 C 
ENDBRANCH   6  21
BRANCH   1  23
ATOM     23  O2  ZIN AC000       0.767  -2.197   1.079  0.00  0.00    -0.353 OA
ATOM     24  C1  ZIN AC000       0.600  -0.805   1.355  0.00  0.00     0.210 C 
ENDBRANCH   1  23
TORSDOF 4
