REMARK  10 active torsions:
REMARK  status: ('A' for Active; 'I' for Inactive)
REMARK    1  A    between atoms: O2_2  and  C3_3 
REMARK    2  A    between atoms: C6_6  and  C7_7 
REMARK    3  A    between atoms: C7_7  and  C8_8 
REMARK    4  A    between atoms: C8_8  and  N11_10 
REMARK    5  A    between atoms: N11_10  and  C14_13 
REMARK    6  A    between atoms: C14_13  and  C15_14 
REMARK    7  A    between atoms: C15_14  and  O17_15 
REMARK    8  A    between atoms: C15_14  and  C18_16 
REMARK    9  A    between atoms: C23_21  and  N24_22 
REMARK   10  A    between atoms: N24_22  and  C25_23 
ROOT
ATOM      1  C14 ZIN AC000      -4.869  -3.948  -3.475  0.00  0.00     0.269 C 
ENDROOT
BRANCH   1   2
ATOM      2  N11 ZIN AC000      -4.494  -3.821  -2.061  0.00  0.00    -0.068 N 
ATOM      3  H12 ZIN AC000      -3.550  -3.469  -1.994  0.00  0.00     0.277 HD
ATOM      4  H13 ZIN AC000      -4.548  -4.724  -1.616  0.00  0.00     0.277 HD
BRANCH   2   5
ATOM      5  C8  ZIN AC000      -5.412  -2.889  -1.392  0.00  0.00     0.186 C 
ATOM      6  C10 ZIN AC000      -6.823  -3.481  -1.385  0.00  0.00     0.040 C 
BRANCH   5   7
ATOM      7  C7  ZIN AC000      -4.947  -2.660   0.047  0.00  0.00     0.071 C 
BRANCH   7   8
ATOM      8  C6  ZIN AC000      -3.610  -1.964   0.039  0.00  0.00    -0.056 A 
ATOM      9  C5  ZIN AC000      -3.550  -0.583   0.044  0.00  0.00     0.010 A 
ATOM     10  C4  ZIN AC000      -2.326   0.057   0.037  0.00  0.00     0.037 A 
ATOM     11  C3  ZIN AC000      -1.156  -0.688   0.024  0.00  0.00     0.068 A 
ATOM     12  C29 ZIN AC000      -1.218  -2.074   0.013  0.00  0.00     0.037 A 
ATOM     13  C28 ZIN AC000      -2.445  -2.709   0.025  0.00  0.00     0.010 A 
BRANCH  11  14
ATOM     14  O2  ZIN AC000       0.050  -0.061   0.016  0.00  0.00    -0.356 OA
ATOM     15  C1  ZIN AC000       0.038   1.368   0.028  0.00  0.00     0.210 C 
ENDBRANCH  11  14
ENDBRANCH   7   8
ENDBRANCH   5   7
ENDBRANCH   2   5
ENDBRANCH   1   2
BRANCH   1  16
ATOM     16  C15 ZIN AC000      -3.913  -4.918  -4.171  0.00  0.00     0.176 C 
BRANCH  16  17
ATOM     17  O17 ZIN AC000      -2.577  -4.421  -4.077  0.00  0.00    -0.389 OA
ATOM     18  H42 ZIN AC000      -2.450  -3.553  -4.485  0.00  0.00     0.210 HD
ENDBRANCH  16  17
BRANCH  16  19
ATOM     19  C18 ZIN AC000      -4.298  -5.049  -5.622  0.00  0.00    -0.026 A 
ATOM     20  C27 ZIN AC000      -5.119  -6.085  -6.027  0.00  0.00     0.042 A 
ATOM     21  C23 ZIN AC000      -5.479  -6.204  -7.361  0.00  0.00     0.071 A 
ATOM     22  C21 ZIN AC000      -5.002  -5.283  -8.292  0.00  0.00     0.134 A 
ATOM     23  C20 ZIN AC000      -4.176  -4.251  -7.879  0.00  0.00     0.043 A 
ATOM     24  O22 ZIN AC000      -5.347  -5.398  -9.602  0.00  0.00    -0.190 OA
ATOM     25  C19 ZIN AC000      -3.825  -4.136  -6.546  0.00  0.00     0.013 A 
BRANCH  21  26
ATOM     26  N24 ZIN AC000      -6.315  -7.250  -7.773  0.00  0.00    -0.332 N 
ATOM     27  H45 ZIN AC000      -6.287  -7.561  -8.691  0.00  0.00     0.168 HD
BRANCH  26  28
ATOM     28  C25 ZIN AC000      -7.159  -7.825  -6.893  0.00  0.00     0.353 C 
ATOM     29  O26 ZIN AC000      -7.266  -7.374  -5.772  0.00  0.00    -0.283 OA
ENDBRANCH  26  28
ENDBRANCH  21  26
ENDBRANCH  16  19
ENDBRANCH   1  16
TORSDOF 10
