REMARK  5 active torsions:
REMARK  status: ('A' for Active; 'I' for Inactive)
REMARK    1  A    between atoms: N2_2  and  C5_5 
REMARK    2  A    between atoms: C5_5  and  C6_6 
REMARK    3  A    between atoms: C6_6  and  C7_7 
REMARK    4  A    between atoms: C7_7  and  C8_8 
REMARK    5  A    between atoms: C8_8  and  C9_9 
ROOT
ATOM      1  C8  <0> d          -4.215  -0.237  -2.574  0.00  0.00     0.116 C 
ATOM      2  O16 <0> d          -4.314   1.196  -2.660  0.00  0.00    -0.366 OA
ATOM      3  C17 <0> d          -5.575   1.520  -2.046  0.00  0.00     0.209 C 
ATOM      4  C18 <0> d          -6.462   0.315  -2.258  0.00  0.00    -0.023 A 
ATOM      5  C19 <0> d          -7.825   0.139  -2.187  0.00  0.00     0.032 A 
ATOM      6  C20 <0> d          -8.377  -1.120  -2.440  0.00  0.00     0.045 A 
ATOM      7  C21 <0> d          -9.794  -1.311  -2.369  0.00  0.00     0.099 C 
ATOM      8  N22 <0> d         -10.919  -1.463  -2.312  0.00  0.00    -0.191 NA
ATOM      9  C23 <0> d          -7.540  -2.190  -2.762  0.00  0.00     0.023 A 
ATOM     10  C24 <0> d          -6.175  -2.000  -2.830  0.00  0.00     0.012 A 
ATOM     11  C25 <0> d          -5.636  -0.753  -2.579  0.00  0.00    -0.011 A 
ENDROOT
BRANCH   1  12
ATOM     12  C7  <0> d          -3.513  -0.640  -1.275  0.00  0.00     0.050 C 
BRANCH  12  13
ATOM     13  C6  <0> d          -2.078  -0.110  -1.286  0.00  0.00     0.031 C 
BRANCH  13  14
ATOM     14  C5  <0> d          -1.376  -0.512   0.012  0.00  0.00     0.234 C 
BRANCH  14  15
ATOM     15  N2  <0> d           0.002  -0.004   0.002  0.00  0.00    -0.079 N 
ATOM     16  C1  <0> d          -0.018   1.465   0.010  0.00  0.00     0.269 C 
ATOM     17  H3  <0> d           0.474  -0.330  -0.828  0.00  0.00     0.278 HD
ATOM     18  C4  <0> d           0.713  -0.491   1.192  0.00  0.00     0.269 C 
ENDBRANCH  14  15
ENDBRANCH  13  14
ENDBRANCH  12  13
ENDBRANCH   1  12
BRANCH   1  19
ATOM     19  C9  <0> d          -3.461  -0.780  -3.760  0.00  0.00    -0.019 A 
ATOM     20  C15 <0> d          -3.486  -0.100  -4.964  0.00  0.00     0.013 A 
ATOM     21  C14 <0> d          -2.791  -0.594  -6.052  0.00  0.00     0.043 A 
ATOM     22  C12 <0> d          -2.078  -1.776  -5.938  0.00  0.00     0.116 A 
ATOM     23  C11 <0> d          -2.059  -2.458  -4.734  0.00  0.00     0.043 A 
ATOM     24  F13 <0> d          -1.403  -2.262  -7.002  0.00  0.00    -0.206 F 
ATOM     25  C10 <0> d          -2.750  -1.960  -3.647  0.00  0.00     0.013 A 
ENDBRANCH   1  19
TORSDOF 5
