REMARK  7 active torsions:
REMARK  status: ('A' for Active; 'I' for Inactive)
REMARK    1  A    between atoms: O2_2  and  C3_3 
REMARK    2  A    between atoms: C12_12  and  O13_13 
REMARK    3  A    between atoms: C14_14  and  C15_15 
REMARK    4  A    between atoms: C15_15  and  C16_16 
REMARK    5  A    between atoms: C17_17  and  C19_19 
REMARK    6  A    between atoms: C19_19  and  C20_20 
REMARK    7  A    between atoms: C20_20  and  C21_21 
ROOT
ATOM      1  C3  ZIN AC000       0.666  -0.453  -1.903  0.00  0.00     0.084 A 
ATOM      2  C4  ZIN AC000      -0.036  -0.334  -3.101  0.00  0.00    -0.018 A 
ATOM      3  C5  ZIN AC000      -1.537  -0.200  -3.083  0.00  0.00     0.052 C 
ATOM      4  C6  ZIN AC000       0.638  -0.339  -4.295  0.00  0.00    -0.006 A 
ATOM      5  C7  ZIN AC000       2.033  -0.463  -4.322  0.00  0.00     0.082 A 
ATOM      6  C8  ZIN AC000       2.466  -0.436  -5.724  0.00  0.00     0.297 A 
ATOM      7  O9  ZIN AC000       3.620  -0.523  -6.096  0.00  0.00    -0.259 OA
ATOM      8  O10 ZIN AC000       1.405  -0.303  -6.538  0.00  0.00    -0.313 OA
ATOM      9  C11 ZIN AC000       0.196  -0.233  -5.733  0.00  0.00     0.219 A 
ATOM     10  C12 ZIN AC000       2.737  -0.583  -3.113  0.00  0.00     0.091 A 
ATOM     11  C14 ZIN AC000       2.048  -0.571  -1.913  0.00  0.00     0.013 A 
ENDROOT
BRANCH  11  12
ATOM     12  C15 ZIN AC000       2.801  -0.699  -0.614  0.00  0.00     0.072 C 
BRANCH  12  13
ATOM     13  C16 ZIN AC000       3.309   0.656  -0.192  0.00  0.00    -0.020 C 
ATOM     14  C17 ZIN AC000       4.580   0.825   0.074  0.00  0.00    -0.087 C 
ATOM     15  C18 ZIN AC000       5.509  -0.361   0.097  0.00  0.00     0.043 C 
BRANCH  14  16
ATOM     16  C19 ZIN AC000       5.113   2.206   0.358  0.00  0.00     0.044 C 
BRANCH  16  17
ATOM     17  C20 ZIN AC000       5.140   2.441   1.870  0.00  0.00     0.117 C 
BRANCH  17  18
ATOM     18  C21 ZIN AC000       5.673   3.822   2.153  0.00  0.00     0.172 C 
ATOM     19  O22 ZIN AC000       6.002   4.550   1.232  0.00  0.00    -0.648 OA
ATOM     20  O23 ZIN AC000       5.777   4.211   3.304  0.00  0.00    -0.648 OA
ENDBRANCH  17  18
ENDBRANCH  16  17
ENDBRANCH  14  16
ENDBRANCH  12  13
ENDBRANCH  11  12
BRANCH   1  21
ATOM     21  O2  ZIN AC000      -0.004  -0.447  -0.723  0.00  0.00    -0.355 OA
ATOM     22  C1  ZIN AC000      -0.295   0.829  -0.149  0.00  0.00     0.210 C 
ENDBRANCH   1  21
BRANCH  10  23
ATOM     23  O13 ZIN AC000       4.088  -0.703  -3.122  0.00  0.00    -0.359 OA
ATOM     24  H32 ZIN AC000       4.559   0.141  -3.083  0.00  0.00     0.217 HD
ENDBRANCH  10  23
TORSDOF 7
