REMARK  5 active torsions:
REMARK  status: ('A' for Active; 'I' for Inactive)
REMARK    1  A    between atoms: C4_4  and  C6_5 
REMARK       I    between atoms: C6_5  and  N8_7 
REMARK    2  A    between atoms: N8_7  and  C9_8 
REMARK    3  A    between atoms: C12_11  and  O13_12 
REMARK    4  A    between atoms: C22_20  and  C24_21 
REMARK    5  A    between atoms: C24_21  and  C25_22 
ROOT
ATOM      1  C9  ZIN AC000      -4.111  -4.570  -0.733  0.00  0.00     0.220 C 
ATOM      2  C10 ZIN AC000      -4.822  -4.391   0.610  0.00  0.00     0.082 C 
ATOM      3  O11 ZIN AC000      -4.030  -5.966  -1.077  0.00  0.00    -0.296 OA
ATOM      4  C12 ZIN AC000      -4.150  -5.985  -2.508  0.00  0.00     0.276 C 
ATOM      5  C14 ZIN AC000      -4.846  -7.249  -2.971  0.00  0.00     0.173 C 
ATOM      6  C16 ZIN AC000      -3.816  -8.352  -3.301  0.00  0.00     0.034 C 
ATOM      7  C17 ZIN AC000      -4.600  -9.268  -4.271  0.00  0.00     0.022 C 
ATOM      8  C18 ZIN AC000      -5.729  -8.383  -4.834  0.00  0.00     0.127 C 
ATOM      9  N19 ZIN AC000      -5.574  -7.040  -4.231  0.00  0.00    -0.338 N 
ATOM     10  C20 ZIN AC000      -5.993  -5.884  -4.762  0.00  0.00     0.243 C 
ATOM     11  O21 ZIN AC000      -6.706  -5.903  -5.743  0.00  0.00    -0.271 OA
ATOM     12  C22 ZIN AC000      -5.594  -4.561  -4.165  0.00  0.00     0.189 C 
ATOM     13  N31 ZIN AC000      -4.907  -4.792  -2.891  0.00  0.00    -0.277 N 
ATOM     14  C32 ZIN AC000      -4.919  -3.936  -1.845  0.00  0.00     0.280 C 
ATOM     15  O33 ZIN AC000      -5.495  -2.870  -1.795  0.00  0.00    -0.268 OA
ENDROOT
BRANCH   1  16
ATOM     16  N8  ZIN AC000      -2.770  -3.981  -0.679  0.00  0.00    -0.321 N 
ATOM     17  C6  ZIN AC000      -2.623  -2.659  -0.460  0.00  0.00     0.229 C 
ATOM     18  O7  ZIN AC000      -3.600  -1.957  -0.306  0.00  0.00    -0.273 OA
ATOM     19  H53 ZIN AC000      -1.989  -4.542  -0.801  0.00  0.00     0.166 HD
BRANCH  17  20
ATOM     20  C4  ZIN AC000      -1.244  -2.054  -0.404  0.00  0.00     0.129 C 
ATOM     21  C3  ZIN AC000      -1.352  -0.547  -0.144  0.00  0.00     0.290 C 
ATOM     22  N2  ZIN AC000       0.002  -0.004   0.002  0.00  0.00     0.094 N 
ATOM     23  C1  ZIN AC000      -0.018   1.465   0.010  0.00  0.00     0.310 C 
ATOM     24  C46 ZIN AC000       0.701  -0.523   1.171  0.00  0.00     0.260 C 
ATOM     25  C35 ZIN AC000       0.412  -1.979   1.427  0.00  0.00    -0.017 C 
ATOM     26  C45 ZIN AC000       2.199  -0.209   1.058  0.00  0.00     0.081 C 
ATOM     27  C34 ZIN AC000      -0.461  -2.675   0.721  0.00  0.00    -0.001 C 
ATOM     28  C36 ZIN AC000       1.142  -2.641   2.525  0.00  0.00    -0.015 A 
ATOM     29  C44 ZIN AC000       0.812  -3.752   3.268  0.00  0.00     0.013 A 
ATOM     30  C37 ZIN AC000       2.367  -2.027   2.858  0.00  0.00     0.009 A 
ATOM     31  C43 ZIN AC000       1.671  -4.191   4.273  0.00  0.00     0.003 A 
ATOM     32  C42 ZIN AC000       2.874  -3.575   4.599  0.00  0.00     0.030 A 
ATOM     33  C41 ZIN AC000       3.240  -2.447   3.866  0.00  0.00     0.043 A 
ATOM     34  N40 ZIN AC000       4.276  -1.564   3.835  0.00  0.00    -0.365 N 
ATOM     35  C39 ZIN AC000       4.077  -0.620   2.839  0.00  0.00     0.096 A 
ATOM     36  H73 ZIN AC000       5.044  -1.591   4.426  0.00  0.00     0.165 HD
ATOM     37  C38 ZIN AC000       2.932  -0.852   2.205  0.00  0.00    -0.027 A 
ENDBRANCH  17  20
ENDBRANCH   1  16
BRANCH   4  38
ATOM     38  O13 ZIN AC000      -2.849  -5.934  -3.096  0.00  0.00    -0.347 OA
ATOM     39  H57 ZIN AC000      -2.338  -5.149  -2.854  0.00  0.00     0.215 HD
ENDBRANCH   4  38
BRANCH  12  40
ATOM     40  C24 ZIN AC000      -4.620  -3.849  -5.106  0.00  0.00     0.073 C 
BRANCH  40  41
ATOM     41  C25 ZIN AC000      -4.317  -2.474  -4.568  0.00  0.00    -0.056 A 
ATOM     42  C30 ZIN AC000      -3.254  -2.289  -3.704  0.00  0.00     0.007 A 
ATOM     43  C29 ZIN AC000      -2.973  -1.027  -3.214  0.00  0.00     0.001 A 
ATOM     44  C28 ZIN AC000      -3.760   0.048  -3.581  0.00  0.00     0.000 A 
ATOM     45  C27 ZIN AC000      -4.826  -0.138  -4.441  0.00  0.00     0.001 A 
ATOM     46  C26 ZIN AC000      -5.105  -1.399  -4.935  0.00  0.00     0.007 A 
ENDBRANCH  40  41
ENDBRANCH  12  40
TORSDOF 5
