REMARK  21 active torsions:
REMARK  status: ('A' for Active; 'I' for Inactive)
REMARK    1  A    between atoms: C2_2  and  C3_3 
REMARK    2  A    between atoms: C3_3  and  C4_4 
REMARK    3  A    between atoms: C4_4  and  C5_5 
REMARK    4  A    between atoms: C5_5  and  C6_6 
REMARK    5  A    between atoms: C6_6  and  C7_7 
REMARK    6  A    between atoms: C7_7  and  C8_8 
REMARK    7  A    between atoms: C8_8  and  C9_9 
REMARK    8  A    between atoms: C9_9  and  C10_10 
REMARK    9  A    between atoms: C10_10  and  C11_11 
REMARK   10  A    between atoms: C11_11  and  C12_12 
REMARK   11  A    between atoms: C12_12  and  C13_13 
REMARK   12  A    between atoms: C13_13  and  C14_14 
REMARK   13  A    between atoms: C14_14  and  C15_15 
REMARK   14  A    between atoms: C15_15  and  C16_16 
REMARK   15  A    between atoms: C16_16  and  C17_17 
REMARK   16  A    between atoms: C17_17  and  C18_18 
REMARK   17  A    between atoms: C18_18  and  C19_19 
REMARK   18  A    between atoms: C19_19  and  C20_20 
REMARK   19  A    between atoms: C20_20  and  C21_21 
REMARK   20  A    between atoms: C21_21  and  C22_22 
REMARK   21  A    between atoms: C22_22  and  O23_23 
ROOT
ATOM      1  C12 <0> d          -7.071 -10.301   0.014  0.00  0.00     0.000 C 
ENDROOT
BRANCH   1   2
ATOM      2  C11 <0> d          -7.092  -8.771   0.023  0.00  0.00     0.000 C 
BRANCH   2   3
ATOM      3  C10 <0> d          -5.657  -8.242   0.012  0.00  0.00     0.000 C 
BRANCH   3   4
ATOM      4  C9  <0> d          -5.677  -6.712   0.020  0.00  0.00     0.000 C 
BRANCH   4   5
ATOM      5  C8  <0> d          -4.242  -6.182   0.009  0.00  0.00     0.000 C 
BRANCH   5   6
ATOM      6  C7  <0> d          -4.263  -4.652   0.018  0.00  0.00     0.000 C 
BRANCH   6   7
ATOM      7  C6  <0> d          -2.827  -4.123   0.007  0.00  0.00     0.000 C 
BRANCH   7   8
ATOM      8  C5  <0> d          -2.848  -2.593   0.015  0.00  0.00     0.000 C 
BRANCH   8   9
ATOM      9  C4  <0> d          -1.413  -2.063   0.004  0.00  0.00     0.000 C 
BRANCH   9  10
ATOM     10  C3  <0> d          -1.433  -0.534   0.013  0.00  0.00    -0.000 C 
BRANCH  10  11
ATOM     11  C2  <0> d           0.002  -0.004   0.002  0.00  0.00    -0.005 C 
ATOM     12  C1  <0> d          -0.019   1.526   0.010  0.00  0.00     0.005 C 
ENDBRANCH  10  11
ENDBRANCH   9  10
ENDBRANCH   8   9
ENDBRANCH   7   8
ENDBRANCH   6   7
ENDBRANCH   5   6
ENDBRANCH   4   5
ENDBRANCH   3   4
ENDBRANCH   2   3
ENDBRANCH   1   2
BRANCH   1  13
ATOM     13  C13 <0> d          -8.507 -10.831   0.025  0.00  0.00     0.000 C 
BRANCH  13  14
ATOM     14  C14 <0> d          -8.486 -12.361   0.017  0.00  0.00     0.000 C 
BRANCH  14  15
ATOM     15  C15 <0> d          -9.921 -12.890   0.028  0.00  0.00     0.000 C 
BRANCH  15  16
ATOM     16  C16 <0> d          -9.900 -14.420   0.019  0.00  0.00     0.000 C 
BRANCH  16  17
ATOM     17  C17 <0> d         -11.336 -14.950   0.030  0.00  0.00     0.000 C 
BRANCH  17  18
ATOM     18  C18 <0> d         -11.315 -16.479   0.022  0.00  0.00     0.000 C 
BRANCH  18  19
ATOM     19  C19 <0> d         -12.750 -17.009   0.033  0.00  0.00     0.000 C 
BRANCH  19  20
ATOM     20  C20 <0> d         -12.730 -18.539   0.024  0.00  0.00     0.002 C 
BRANCH  20  21
ATOM     21  C21 <0> d         -14.165 -19.068   0.035  0.00  0.00     0.026 C 
BRANCH  21  22
ATOM     22  C22 <0> d         -14.144 -20.598   0.026  0.00  0.00     0.164 C 
BRANCH  22  23
ATOM     23  O23 <0> d         -15.485 -21.093   0.037  0.00  0.00    -0.401 OA
ATOM     24  H69 <0> d         -15.548 -22.058   0.032  0.00  0.00     0.209 HD
ENDBRANCH  22  23
ENDBRANCH  21  22
ENDBRANCH  20  21
ENDBRANCH  19  20
ENDBRANCH  18  19
ENDBRANCH  17  18
ENDBRANCH  16  17
ENDBRANCH  15  16
ENDBRANCH  14  15
ENDBRANCH  13  14
ENDBRANCH   1  13
TORSDOF 21
