REMARK  7 active torsions:
REMARK  status: ('A' for Active; 'I' for Inactive)
REMARK    1  A    between atoms: N4_4  and  C5_5 
REMARK    2  A    between atoms: C7_7  and  N8_8 
REMARK       I    between atoms: N8_8  and  C9_9 
REMARK    3  A    between atoms: C9_9  and  C11_11 
REMARK    4  A    between atoms: C16_16  and  N17_17 
REMARK    5  A    between atoms: N17_17  and  C18_18 
REMARK    6  A    between atoms: C22_22  and  C23_23 
REMARK    7  A    between atoms: C32_32  and  C33_33 
ROOT
ATOM      1  C11 ZIN AC000       0.297  -5.143  -7.239  0.00  0.00     0.034 A 
ATOM      2  C12 ZIN AC000       0.289  -3.879  -7.832  0.00  0.00     0.018 A 
ATOM      3  C13 ZIN AC000       0.385  -3.759  -9.203  0.00  0.00     0.010 A 
ATOM      4  C14 ZIN AC000       0.488  -4.887  -9.995  0.00  0.00    -0.035 A 
ATOM      5  C15 ZIN AC000       0.593  -4.747 -11.492  0.00  0.00     0.050 C 
ATOM      6  C16 ZIN AC000       0.498  -6.150  -9.415  0.00  0.00     0.056 A 
ATOM      7  C30 ZIN AC000       0.407  -6.281  -8.038  0.00  0.00     0.047 A 
ENDROOT
BRANCH   1   8
ATOM      8  C9  ZIN AC000       0.194  -5.274  -5.771  0.00  0.00     0.256 C 
ATOM      9  N8  ZIN AC000       0.087  -4.173  -5.001  0.00  0.00    -0.323 N 
ATOM     10  H46 ZIN AC000      -0.008  -3.300  -5.414  0.00  0.00     0.169 HD
ATOM     11  O10 ZIN AC000       0.206  -6.376  -5.256  0.00  0.00    -0.267 OA
BRANCH   9  12
ATOM     12  C7  ZIN AC000       0.114  -4.287  -3.608  0.00  0.00     0.037 A 
ATOM     13  C6  ZIN AC000       0.763  -5.360  -3.012  0.00  0.00     0.059 A 
ATOM     14  C5  ZIN AC000       0.788  -5.470  -1.629  0.00  0.00     0.042 A 
ATOM     15  C37 ZIN AC000       0.158  -4.511  -0.846  0.00  0.00     0.046 A 
ATOM     16  C32 ZIN AC000      -0.482  -3.442  -1.442  0.00  0.00     0.052 A 
ATOM     17  C31 ZIN AC000      -0.509  -3.329  -2.819  0.00  0.00     0.046 A 
BRANCH  14  18
ATOM     18  N4  ZIN AC000       1.442  -6.553  -1.023  0.00  0.00    -0.317 N 
ATOM     19  C3  ZIN AC000       2.102  -7.569  -1.665  0.00  0.00     0.122 A 
ATOM     20  C2  ZIN AC000       2.579  -8.389  -0.709  0.00  0.00     0.022 A 
ATOM     21  C1  ZIN AC000       3.375  -9.647  -0.940  0.00  0.00     0.069 C 
ATOM     22  N39 ZIN AC000       2.218  -7.895   0.485  0.00  0.00    -0.354 N 
ATOM     23  C38 ZIN AC000       1.542  -6.792   0.310  0.00  0.00     0.188 A 
ATOM     24  H40 ZIN AC000       2.432  -8.291   1.344  0.00  0.00     0.166 HD
ENDBRANCH  14  18
BRANCH  16  25
ATOM     25  C33 ZIN AC000      -1.159  -2.401  -0.589  0.00  0.00     0.417 C 
ATOM     26  F34 ZIN AC000      -1.739  -1.429  -1.411  0.00  0.00    -0.166 F 
ATOM     27  F35 ZIN AC000      -2.152  -3.007   0.188  0.00  0.00    -0.166 F 
ATOM     28  F36 ZIN AC000      -0.214  -1.799   0.250  0.00  0.00    -0.166 F 
ENDBRANCH  16  25
ENDBRANCH   9  12
ENDBRANCH   1   8
BRANCH   6  29
ATOM     29  N17 ZIN AC000       0.604  -7.289 -10.220  0.00  0.00    -0.188 N 
ATOM     30  H52 ZIN AC000       1.142  -7.264 -11.027  0.00  0.00     0.184 HD
BRANCH  29  31
ATOM     31  C18 ZIN AC000      -0.059  -8.453  -9.865  0.00  0.00     0.727 A 
ATOM     32  N29 ZIN AC000      -0.021  -9.491 -10.685  0.00  0.00    -0.062 NA
ATOM     33  C22 ZIN AC000      -0.644 -10.625 -10.371  0.00  0.00     0.089 A 
ATOM     34  C21 ZIN AC000      -1.348 -10.700  -9.166  0.00  0.00     0.053 A 
ATOM     35  C20 ZIN AC000      -1.365  -9.588  -8.343  0.00  0.00     0.139 A 
ATOM     36  N19 ZIN AC000      -0.719  -8.495  -8.717  0.00  0.00    -0.075 NA
BRANCH  33  37
ATOM     37  C23 ZIN AC000      -0.596 -11.789 -11.288  0.00  0.00     0.011 A 
ATOM     38  C28 ZIN AC000      -1.336 -12.938 -11.014  0.00  0.00     0.130 A 
ATOM     39  N27 ZIN AC000      -1.298 -13.971 -11.831  0.00  0.00    -0.272 NA
ATOM     40  C26 ZIN AC000      -0.560 -13.967 -12.924  0.00  0.00     0.116 A 
ATOM     41  C25 ZIN AC000       0.207 -12.867 -13.263  0.00  0.00     0.020 A 
ATOM     42  C24 ZIN AC000       0.197 -11.755 -12.439  0.00  0.00     0.017 A 
ENDBRANCH  33  37
ENDBRANCH  29  31
ENDBRANCH   6  29
TORSDOF 7
