REMARK  6 active torsions:
REMARK  status: ('A' for Active; 'I' for Inactive)
REMARK    1  A    between atoms: C7_6  and  N9_7 
REMARK       I    between atoms: N9_7  and  C10_8 
REMARK    2  A    between atoms: C10_8  and  C12_10 
REMARK    3  A    between atoms: C12_10  and  N14_11 
REMARK    4  A    between atoms: C12_10  and  C18_15 
REMARK    5  A    between atoms: C21_18  and  O22_19 
REMARK    6  A    between atoms: C28_25  and  C30_26 
ROOT
ATOM      1  N9  <0> d           2.685  -3.001  -0.734  0.00  0.00    -0.344 N 
ATOM      2  C10 <0> d           3.401  -4.096  -1.056  0.00  0.00     0.253 C 
ATOM      3  O11 <0> d           4.595  -4.124  -0.843  0.00  0.00    -0.271 OA
ATOM      4  H39 <0> d           1.730  -2.978  -0.904  0.00  0.00     0.163 HD
ENDROOT
BRANCH   1   5
ATOM      5  C7  <0> d           3.348  -1.844  -0.128  0.00  0.00     0.199 C 
ATOM      6  C5  <0> d           2.633  -0.517  -0.354  0.00  0.00     0.160 C 
ATOM      7  S4  <0> d           1.091  -0.652  -1.336  0.00  0.00    -0.135 SA
ATOM      8  N27 <0> d           2.194  -0.470   1.047  0.00  0.00    -0.219 NA
ATOM      9  C2  <0> d           0.002  -0.004   0.002  0.00  0.00     0.029 C 
ATOM     10  C1  <0> d          -0.019   1.526   0.010  0.00  0.00     0.029 C 
ATOM     11  C28 <0> d           0.745  -0.566   1.244  0.00  0.00     0.186 C 
ATOM     12  C3  <0> d          -1.413  -0.575  -0.105  0.00  0.00     0.029 C 
ATOM     13  C25 <0> d           2.955  -1.578   1.301  0.00  0.00     0.227 C 
ATOM     14  O26 <0> d           3.228  -2.150   2.334  0.00  0.00    -0.277 OA
BRANCH  11  15
ATOM     15  C30 <0> d           0.354   0.217   2.472  0.00  0.00     0.193 C 
ATOM     16  O31 <0> d           1.175   0.924   3.030  0.00  0.00    -0.647 OA
ATOM     17  O32 <0> d          -0.782   0.142   2.907  0.00  0.00    -0.647 OA
ENDBRANCH  11  15
ENDBRANCH   1   5
BRANCH   2  18
ATOM     18  C12 <0> d           2.719  -5.286  -1.679  0.00  0.00     0.307 C 
BRANCH  18  19
ATOM     19  N14 <0> d           3.556  -6.480  -1.499  0.00  0.00    -0.062 N 
ATOM     20  H15 <0> d           3.099  -7.277  -1.917  0.00  0.00     0.275 HD
ATOM     21  H16 <0> d           4.450  -6.335  -1.943  0.00  0.00     0.275 HD
ATOM     22  H17 <0> d           3.692  -6.649  -0.514  0.00  0.00     0.275 HD
ENDBRANCH  18  19
BRANCH  18  23
ATOM     23  C18 <0> d           2.515  -5.034  -3.151  0.00  0.00    -0.019 A 
ATOM     24  C24 <0> d           1.279  -4.622  -3.616  0.00  0.00     0.012 A 
ATOM     25  C23 <0> d           1.091  -4.385  -4.963  0.00  0.00     0.037 A 
ATOM     26  C21 <0> d           2.139  -4.571  -5.853  0.00  0.00     0.065 A 
ATOM     27  C20 <0> d           3.377  -4.990  -5.385  0.00  0.00     0.037 A 
ATOM     28  C19 <0> d           3.561  -5.220  -4.035  0.00  0.00     0.012 A 
BRANCH  26  29
ATOM     29  O22 <0> d           1.955  -4.344  -7.180  0.00  0.00    -0.361 OA
ATOM     30  H42 <0> d           1.659  -5.120  -7.674  0.00  0.00     0.217 HD
ENDBRANCH  26  29
ENDBRANCH  18  23
ENDBRANCH   2  18
TORSDOF 6
