REMARK  12 active torsions:
REMARK  status: ('A' for Active; 'I' for Inactive)
REMARK    1  A    between atoms: C2_2  and  C3_3 
REMARK    2  A    between atoms: C15_15  and  O16_16 
REMARK    3  A    between atoms: C18_18  and  C19_19 
REMARK    4  A    between atoms: C19_19  and  C20_20 
REMARK    5  A    between atoms: C20_20  and  O22_22 
REMARK    6  A    between atoms: C31_30  and  O32_31 
REMARK    7  A    between atoms: C31_30  and  C33_32 
REMARK    8  A    between atoms: C52_50  and  O53_51 
REMARK    9  A    between atoms: C52_50  and  C54_52 
REMARK   10  A    between atoms: C54_52  and  O56_54 
REMARK   11  A    between atoms: C58_56  and  O60_57 
REMARK   12  A    between atoms: O60_57  and  C61_58 
ROOT
ATOM      1  C3  ZIN AC000       0.814  -0.871   1.696  0.00  0.00     0.037 C 
ATOM      2  C4  ZIN AC000       0.300  -0.458   3.041  0.00  0.00    -0.015 C 
ATOM      3  C5  ZIN AC000       0.045  -1.314   3.984  0.00  0.00    -0.003 C 
ATOM      4  C6  ZIN AC000       0.269  -2.784   3.791  0.00  0.00     0.262 C 
ATOM      5  N7  ZIN AC000       0.068  -3.166   2.390  0.00  0.00    -0.061 N 
ATOM      6  H8  ZIN AC000      -0.912  -3.127   2.153  0.00  0.00     0.280 HD
ATOM      7  C9  ZIN AC000       0.587  -4.553   2.228  0.00  0.00     0.237 C 
ATOM      8  C10 ZIN AC000       2.097  -4.361   1.948  0.00  0.00     0.046 C 
ATOM      9  C11 ZIN AC000       2.131  -3.044   1.122  0.00  0.00     0.040 C 
ATOM     10  C12 ZIN AC000       2.201  -3.409  -0.335  0.00  0.00    -0.024 A 
ATOM     11  C13 ZIN AC000       3.311  -2.765  -0.892  0.00  0.00     0.020 A 
ATOM     12  C14 ZIN AC000       3.628  -2.945  -2.241  0.00  0.00     0.061 A 
ATOM     13  C15 ZIN AC000       2.794  -3.771  -2.986  0.00  0.00     0.077 A 
ATOM     14  C18 ZIN AC000       1.692  -4.394  -2.423  0.00  0.00     0.000 A 
ATOM     15  C47 ZIN AC000       1.373  -4.225  -1.082  0.00  0.00     0.021 A 
ATOM     16  N48 ZIN AC000       3.954  -1.972   0.044  0.00  0.00    -0.278 NA
ATOM     17  C49 ZIN AC000       5.411  -2.144  -0.032  0.00  0.00     0.117 C 
ATOM     18  C50 ZIN AC000       3.445  -2.322   1.396  0.00  0.00     0.125 C 
ATOM     19  C52 ZIN AC000       3.253  -1.018   2.164  0.00  0.00     0.190 C 
ATOM     20  C58 ZIN AC000       2.164  -0.199   1.443  0.00  0.00     0.192 C 
ATOM     21  C64 ZIN AC000       0.862  -2.340   1.495  0.00  0.00     0.218 C 
ENDROOT
BRANCH  14  22
ATOM     22  C19 ZIN AC000       0.821  -5.272  -3.285  0.00  0.00     0.121 C 
ATOM     23  C39 ZIN AC000       0.352  -4.550  -4.532  0.00  0.00     0.040 A 
ATOM     24  C38 ZIN AC000       0.011  -3.267  -4.764  0.00  0.00    -0.020 A 
ATOM     25  N40 ZIN AC000       0.202  -5.263  -5.717  0.00  0.00    -0.357 N 
ATOM     26  C37 ZIN AC000      -0.085  -2.066  -3.841  0.00  0.00     0.069 C 
ATOM     27  C46 ZIN AC000      -0.277  -3.146  -6.194  0.00  0.00    -0.001 A 
ATOM     28  C36 ZIN AC000      -1.604  -1.693  -3.662  0.00  0.00     0.239 C 
ATOM     29  N28 ZIN AC000      -2.260  -3.003  -3.643  0.00  0.00    -0.068 N 
ATOM     30  C27 ZIN AC000      -1.596  -3.696  -2.489  0.00  0.00     0.239 C 
ATOM     31  H29 ZIN AC000      -2.076  -3.490  -4.513  0.00  0.00     0.280 HD
ATOM     32  C30 ZIN AC000      -3.669  -3.163  -3.333  0.00  0.00     0.272 C 
ATOM     33  C25 ZIN AC000      -1.605  -5.121  -3.131  0.00  0.00     0.016 C 
ATOM     34  C24 ZIN AC000      -0.412  -5.809  -2.477  0.00  0.00     0.037 C 
ATOM     35  C35 ZIN AC000      -3.008  -5.605  -2.783  0.00  0.00     0.045 C 
ATOM     36  C31 ZIN AC000      -4.038  -4.655  -3.416  0.00  0.00     0.082 C 
ATOM     37  C41 ZIN AC000      -0.133  -4.438  -6.742  0.00  0.00     0.043 A 
ATOM     38  C45 ZIN AC000      -0.632  -2.049  -6.983  0.00  0.00     0.014 A 
ATOM     39  C42 ZIN AC000      -0.329  -4.656  -8.105  0.00  0.00     0.030 A 
ATOM     40  C43 ZIN AC000      -0.675  -3.554  -8.869  0.00  0.00     0.002 A 
ATOM     41  C44 ZIN AC000      -0.824  -2.291  -8.322  0.00  0.00     0.001 A 
ATOM     42 4H10 ZIN AC000       0.294  -6.223  -5.812  0.00  0.00     0.166 HD
BRANCH  36  43
ATOM     43  O32 ZIN AC000      -4.198  -5.006  -4.794  0.00  0.00    -0.388 OA
ATOM     44  H92 ZIN AC000      -4.888  -4.505  -5.250  0.00  0.00     0.210 HD
ENDBRANCH  36  43
BRANCH  36  45
ATOM     45  C33 ZIN AC000      -5.384  -4.857  -2.711  0.00  0.00     0.035 C 
ATOM     46  C34 ZIN AC000      -6.455  -4.012  -3.404  0.00  0.00     0.008 C 
ENDBRANCH  36  45
BRANCH  22  47
ATOM     47  C20 ZIN AC000       1.670  -6.468  -3.696  0.00  0.00     0.278 C 
ATOM     48  O21 ZIN AC000       1.327  -7.586  -3.392  0.00  0.00    -0.264 OA
BRANCH  47  49
ATOM     49  O22 ZIN AC000       2.800  -6.280  -4.397  0.00  0.00    -0.325 OA
ATOM     50  C23 ZIN AC000       3.558  -7.465  -4.754  0.00  0.00     0.213 C 
ENDBRANCH  47  49
ENDBRANCH  22  47
ENDBRANCH  14  22
BRANCH  13  51
ATOM     51  O16 ZIN AC000       3.068  -3.973  -4.302  0.00  0.00    -0.355 OA
ATOM     52  C17 ZIN AC000       4.216  -3.310  -4.835  0.00  0.00     0.210 C 
ENDBRANCH  13  51
BRANCH  19  53
ATOM     53  O53 ZIN AC000       2.830  -1.305   3.499  0.00  0.00    -0.376 OA
ATOM     54 3H11 ZIN AC000       2.688  -0.519   4.044  0.00  0.00     0.211 HD
ENDBRANCH  19  53
BRANCH  19  55
ATOM     55  C54 ZIN AC000       4.552  -0.254   2.198  0.00  0.00     0.297 C 
ATOM     56  O55 ZIN AC000       5.079  -0.006   3.256  0.00  0.00    -0.262 OA
BRANCH  55  57
ATOM     57  O56 ZIN AC000       5.122   0.150   1.053  0.00  0.00    -0.324 OA
ATOM     58  C57 ZIN AC000       6.372   0.881   1.161  0.00  0.00     0.213 C 
ENDBRANCH  55  57
ENDBRANCH  19  55
BRANCH   1  59
ATOM     59  C2  ZIN AC000      -0.160  -0.310   0.658  0.00  0.00     0.014 C 
ATOM     60  C1  ZIN AC000      -0.268   1.206   0.826  0.00  0.00     0.006 C 
ENDBRANCH   1  59
BRANCH  20  61
ATOM     61  O60 ZIN AC000       2.147   1.157   1.960  0.00  0.00    -0.311 OA
BRANCH  61  62
ATOM     62  C61 ZIN AC000       2.936   2.054   1.348  0.00  0.00     0.255 C 
ATOM     63  C62 ZIN AC000       2.969   3.482   1.829  0.00  0.00     0.126 C 
ATOM     64  O63 ZIN AC000       3.619   1.717   0.410  0.00  0.00    -0.266 OA
ENDBRANCH  61  62
ENDBRANCH  20  61
TORSDOF 12
