REMARK  0 active torsions:
REMARK  status: ('A' for Active; 'I' for Inactive)
ROOT
ATOM      1  C1  ZIN AC000      -0.019   1.526   0.010  0.00  0.00     0.051 C 
ATOM      2  C2  ZIN AC000       0.002  -0.004   0.002  0.00  0.00     0.179 C 
ATOM      3  O4  ZIN AC000       0.723  -0.498  -1.141  0.00  0.00    -0.362 OA
ATOM      4  C5  ZIN AC000       1.507  -1.667  -0.947  0.00  0.00     0.101 C 
ATOM      5  C6  ZIN AC000       1.471  -2.188   0.513  0.00  0.00     0.116 C 
ATOM      6  S7  ZIN AC000       0.987  -0.652   1.416  0.00  0.00    -0.135 SA
ATOM      7  C8  ZIN AC000       0.996  -2.786  -1.865  0.00  0.00     0.311 C 
ATOM      8  N9  ZIN AC000       2.067  -3.188  -2.786  0.00  0.00     0.091 N 
ATOM      9  C10 ZIN AC000       2.472  -2.068  -3.647  0.00  0.00     0.273 C 
ATOM     10  C11 ZIN AC000       3.030  -0.936  -2.779  0.00  0.00     0.038 C 
ATOM     11  C12 ZIN AC000       2.970  -1.365  -1.308  0.00  0.00     0.026 C 
ATOM     12  C13 ZIN AC000       3.792  -2.648  -1.136  0.00  0.00     0.038 C 
ATOM     13  C14 ZIN AC000       3.218  -3.732  -2.053  0.00  0.00     0.273 C 
ENDROOT
TORSDOF 0
