REMARK  0 active torsions:
REMARK  status: ('A' for Active; 'I' for Inactive)
ROOT
ATOM      1  C1  ZIN AC000      -0.018   1.465   0.010  0.00  0.00     0.269 C 
ATOM      2  N2  ZIN AC000       0.002  -0.004   0.002  0.00  0.00    -0.074 N 
ATOM      3  H3  ZIN AC000      -0.943  -0.357  -0.004  0.00  0.00     0.279 HD
ATOM      4  C4  ZIN AC000       0.726  -0.489  -1.204  0.00  0.00     0.244 C 
ATOM      5  C5  ZIN AC000       1.491  -1.725  -0.704  0.00  0.00     0.057 C 
ATOM      6  C7  ZIN AC000       2.631  -2.154  -1.540  0.00  0.00    -0.018 A 
ATOM      7  C8  ZIN AC000       3.029  -1.463  -2.667  0.00  0.00     0.010 A 
ATOM      8  C9  ZIN AC000       4.125  -1.895  -3.391  0.00  0.00     0.001 A 
ATOM      9  C10 ZIN AC000       4.827  -3.016  -2.989  0.00  0.00     0.003 A 
ATOM     10  C11 ZIN AC000       4.426  -3.720  -1.869  0.00  0.00     0.038 A 
ATOM     11  C12 ZIN AC000       3.318  -3.298  -1.153  0.00  0.00     0.082 A 
ATOM     12  O13 ZIN AC000       2.836  -4.003  -0.111  0.00  0.00    -0.310 OA
ATOM     13  C14 ZIN AC000       2.852  -3.597   1.173  0.00  0.00     0.083 A 
ATOM     14  C15 ZIN AC000       3.314  -4.522   2.111  0.00  0.00     0.039 A 
ATOM     15  C16 ZIN AC000       3.392  -4.201   3.447  0.00  0.00     0.026 A 
ATOM     16  C17 ZIN AC000       3.009  -2.939   3.866  0.00  0.00     0.034 A 
ATOM     17 Cl18 ZIN AC000       3.113  -2.509   5.545  0.00  0.00    -0.084 Cl
ATOM     18  C19 ZIN AC000       2.545  -2.024   2.946  0.00  0.00     0.034 A 
ATOM     19  C20 ZIN AC000       2.449  -2.339   1.591  0.00  0.00    -0.016 A 
ATOM     20  C21 ZIN AC000       1.905  -1.301   0.690  0.00  0.00     0.057 C 
ATOM     21  C23 ZIN AC000       0.714  -0.501   1.207  0.00  0.00     0.244 C 
ENDROOT
TORSDOF 0
