REMARK  7 active torsions:
REMARK  status: ('A' for Active; 'I' for Inactive)
REMARK    1  A    between atoms: C3_3  and  C4_4 
REMARK    2  A    between atoms: C5_5  and  C6_6 
REMARK    3  A    between atoms: C12_12  and  N14_13 
REMARK       I    between atoms: N14_13  and  C15_14 
REMARK    4  A    between atoms: C15_14  and  C17_16 
REMARK    5  A    between atoms: C17_16  and  N19_17 
REMARK    6  A    between atoms: C17_16  and  C23_21 
REMARK    7  A    between atoms: C26_24  and  O27_25 
ROOT
ATOM      1  N14 <0> d           1.232   2.128  -6.372  0.00  0.00    -0.343 N 
ATOM      2  C15 <0> d           1.146   2.461  -7.675  0.00  0.00     0.253 C 
ATOM      3  O16 <0> d           2.045   2.171  -8.435  0.00  0.00    -0.271 OA
ATOM      4  H39 <0> d           0.512   2.360  -5.763  0.00  0.00     0.163 HD
ENDROOT
BRANCH   1   5
ATOM      5  C12 <0> d           2.410   1.414  -5.874  0.00  0.00     0.210 C 
ATOM      6  C10 <0> d           2.184  -0.055  -5.604  0.00  0.00     0.251 C 
ATOM      7  N9  <0> d           2.022   0.075  -4.293  0.00  0.00    -0.293 N 
ATOM      8  O11 <0> d           2.158  -1.022  -6.335  0.00  0.00    -0.271 OA
ATOM      9  C5  <0> d           1.489  -0.566  -3.169  0.00  0.00     0.122 C 
ATOM     10  C30 <0> d           2.579   1.454  -4.365  0.00  0.00     0.187 C 
ATOM     11  C4  <0> d           1.110   0.160  -2.097  0.00  0.00    -0.015 C 
ATOM     12  C33 <0> d           1.246   1.635  -1.901  0.00  0.00     0.117 C 
ATOM     13  S32 <0> d           1.418   2.545  -3.477  0.00  0.00    -0.136 SA
BRANCH   9  14
ATOM     14  C6  <0> d           1.344  -2.023  -3.157  0.00  0.00     0.227 C 
ATOM     15  O7  <0> d           0.976  -2.593  -2.137  0.00  0.00    -0.643 OA
ATOM     16  O8  <0> d           1.590  -2.671  -4.166  0.00  0.00    -0.643 OA
ENDBRANCH   9  14
BRANCH  11  17
ATOM     17  C3  <0> d           0.487  -0.582  -1.002  0.00  0.00     0.006 C 
ATOM     18  C2  <0> d           1.108  -0.679   0.176  0.00  0.00    -0.030 C 
ATOM     19  C1  <0> d           2.386   0.081   0.420  0.00  0.00     0.036 C 
ENDBRANCH  11  17
ENDBRANCH   1   5
BRANCH   2  20
ATOM     20  C17 <0> d          -0.067   3.195  -8.186  0.00  0.00     0.307 C 
BRANCH  20  21
ATOM     21  N19 <0> d          -0.163   3.026  -9.642  0.00  0.00    -0.062 N 
ATOM     22  H20 <0> d           0.666   3.400 -10.080  0.00  0.00     0.275 HD
ATOM     23  H21 <0> d          -0.246   2.045  -9.862  0.00  0.00     0.275 HD
ATOM     24  H22 <0> d          -0.975   3.517  -9.985  0.00  0.00     0.275 HD
ENDBRANCH  20  21
BRANCH  20  25
ATOM     25  C23 <0> d           0.057   4.661  -7.858  0.00  0.00    -0.019 A 
ATOM     26  C29 <0> d          -0.616   5.183  -6.769  0.00  0.00     0.012 A 
ATOM     27  C28 <0> d          -0.500   6.525  -6.463  0.00  0.00     0.037 A 
ATOM     28  C26 <0> d           0.284   7.351  -7.255  0.00  0.00     0.065 A 
ATOM     29  C25 <0> d           0.954   6.825  -8.350  0.00  0.00     0.037 A 
ATOM     30  C24 <0> d           0.839   5.482  -8.649  0.00  0.00     0.012 A 
BRANCH  28  31
ATOM     31  O27 <0> d           0.395   8.673  -6.959  0.00  0.00    -0.361 OA
ATOM     32  H42 <0> d          -0.272   9.229  -7.385  0.00  0.00     0.217 HD
ENDBRANCH  28  31
ENDBRANCH  20  25
ENDBRANCH   2  20
TORSDOF 7
