REMARK  7 active torsions:
REMARK  status: ('A' for Active; 'I' for Inactive)
REMARK    1  A    between atoms: C2_2  and  N3_3 
REMARK    2  A    between atoms: N3_3  and  C5_5 
REMARK    3  A    between atoms: N3_3  and  C7_7 
REMARK    4  A    between atoms: C7_7  and  C8_8 
REMARK    5  A    between atoms: C8_8  and  N9_9 
REMARK       I    between atoms: N9_9  and  C10_10 
REMARK    6  A    between atoms: C10_10  and  C12_12 
REMARK    7  A    between atoms: C15_15  and  N16_16 
ROOT
ATOM      1  N9  ZIN AC000       1.349  -4.018  -2.680  0.00  0.00    -0.355 N 
ATOM      2  C10 ZIN AC000       2.002  -4.682  -3.654  0.00  0.00     0.251 C 
ATOM      3  O11 ZIN AC000       2.701  -4.074  -4.442  0.00  0.00    -0.268 OA
ATOM      4  H33 ZIN AC000       0.792  -4.504  -2.052  0.00  0.00     0.162 HD
ENDROOT
BRANCH   2   5
ATOM      5  C12 ZIN AC000       1.870  -6.147  -3.765  0.00  0.00     0.032 A 
ATOM      6  C18 ZIN AC000       2.547  -6.838  -4.774  0.00  0.00     0.019 A 
ATOM      7  C17 ZIN AC000       2.425  -8.205  -4.872  0.00  0.00     0.030 A 
ATOM      8  C15 ZIN AC000       1.620  -8.900  -3.973  0.00  0.00     0.025 A 
ATOM      9  C14 ZIN AC000       0.941  -8.214  -2.969  0.00  0.00     0.030 A 
ATOM     10  C13 ZIN AC000       1.062  -6.848  -2.864  0.00  0.00     0.019 A 
BRANCH   8  11
ATOM     11  N16 ZIN AC000       1.495 -10.280  -4.077  0.00  0.00    -0.399 N 
ATOM     12  H36 ZIN AC000       0.934 -10.765  -3.452  0.00  0.00     0.156 HD
ATOM     13  H37 ZIN AC000       1.968 -10.759  -4.776  0.00  0.00     0.156 HD
ENDBRANCH   8  11
ENDBRANCH   2   5
BRANCH   1  14
ATOM     14  C8  ZIN AC000       1.480  -2.563  -2.571  0.00  0.00     0.150 C 
BRANCH  14  15
ATOM     15  C7  ZIN AC000       0.644  -2.063  -1.391  0.00  0.00     0.254 C 
BRANCH  15  16
ATOM     16  N3  ZIN AC000       0.871  -0.624  -1.206  0.00  0.00    -0.070 N 
ATOM     17  H4  ZIN AC000       1.859  -0.450  -1.103  0.00  0.00     0.279 HD
BRANCH  16  18
ATOM     18  C2  ZIN AC000       0.364   0.107  -2.375  0.00  0.00     0.230 C 
ATOM     19  C1  ZIN AC000       0.712   1.591  -2.240  0.00  0.00     0.034 C 
ENDBRANCH  16  18
BRANCH  16  20
ATOM     20  C5  ZIN AC000       0.165  -0.168  -0.001  0.00  0.00     0.230 C 
ATOM     21  C6  ZIN AC000       0.798  -0.811   1.235  0.00  0.00     0.034 C 
ENDBRANCH  16  20
ENDBRANCH  15  16
ENDBRANCH  14  15
ENDBRANCH   1  14
TORSDOF 7
