REMARK  3 active torsions:
REMARK  status: ('A' for Active; 'I' for Inactive)
REMARK    1  A    between atoms: C2_2  and  C4_4 
REMARK    2  A    between atoms: C4_4  and  N5_5 
REMARK    3  A    between atoms: C17_17  and  N18_18 
ROOT
ATOM      1  N5  <0> d          -0.008  -0.140   2.444  0.00  0.00    -0.338 N 
ATOM      2  C6  <0> d           0.194   0.966   3.212  0.00  0.00     0.211 A 
ATOM      3  N7  <0> d          -0.654   0.977   4.200  0.00  0.00    -0.238 NA
ATOM      4  C8  <0> d          -1.449  -0.117   4.127  0.00  0.00     0.131 A 
ATOM      5  C9  <0> d          -1.045  -0.838   2.999  0.00  0.00     0.081 A 
ATOM      6  C10 <0> d          -1.750  -2.075   2.691  0.00  0.00     0.022 A 
ATOM      7  C11 <0> d          -1.413  -2.860   1.584  0.00  0.00     0.016 A 
ATOM      8  C12 <0> d          -2.103  -4.011   1.337  0.00  0.00     0.001 A 
ATOM      9  C13 <0> d          -3.138  -4.413   2.175  0.00  0.00     0.002 A 
ATOM     10  C14 <0> d          -3.490  -3.669   3.262  0.00  0.00     0.032 A 
ATOM     11  C15 <0> d          -2.803  -2.480   3.547  0.00  0.00     0.071 A 
ATOM     12  N16 <0> d          -3.132  -1.733   4.611  0.00  0.00    -0.229 NA
ATOM     13  C17 <0> d          -2.516  -0.612   4.911  0.00  0.00     0.153 A 
ENDROOT
BRANCH   1  14
ATOM     14  C4  <0> d           0.742  -0.511   1.242  0.00  0.00     0.134 C 
BRANCH  14  15
ATOM     15  C2  <0> d           0.002  -0.004   0.002  0.00  0.00    -0.004 C 
ATOM     16  C1  <0> d          -0.019   1.526   0.010  0.00  0.00     0.011 C 
ATOM     17  C3  <0> d           0.718  -0.497  -1.257  0.00  0.00     0.011 C 
ENDBRANCH  14  15
ENDBRANCH   1  14
BRANCH  13  18
ATOM     18  N18 <0> d          -2.918   0.100   6.029  0.00  0.00    -0.382 N 
ATOM     19  H33 <0> d          -3.646  -0.231   6.578  0.00  0.00     0.157 HD
ATOM     20  H34 <0> d          -2.472   0.929   6.262  0.00  0.00     0.157 HD
ENDBRANCH  13  18
TORSDOF 3
