REMARK  11 active torsions:
REMARK  status: ('A' for Active; 'I' for Inactive)
REMARK    1  A    between atoms: S2_2  and  C5_5 
REMARK    2  A    between atoms: C5_5  and  C6_6 
REMARK    3  A    between atoms: C6_6  and  N7_7 
REMARK    4  A    between atoms: N7_7  and  C10_10 
REMARK    5  A    between atoms: C10_10  and  C11_11 
REMARK    6  A    between atoms: C14_14  and  C15_15 
REMARK    7  A    between atoms: C22_22  and  N23_23 
REMARK    8  A    between atoms: N23_23  and  C24_24 
REMARK    9  A    between atoms: C27_27  and  O28_28 
REMARK   10  A    between atoms: O28_28  and  C29_29 
REMARK   11  A    between atoms: C29_29  and  C30_30 
ROOT
ATOM      1  C15 ZIN AC000       2.609  -5.217  -7.940  0.00  0.00    -0.001 A 
ATOM      2  C16 ZIN AC000       3.703  -5.471  -8.784  0.00  0.00     0.016 A 
ATOM      3  C17 ZIN AC000       3.556  -5.476 -10.136  0.00  0.00     0.033 A 
ATOM      4  C18 ZIN AC000       2.298  -5.225 -10.704  0.00  0.00     0.072 A 
ATOM      5  N19 ZIN AC000       2.111  -5.221 -12.032  0.00  0.00    -0.241 NA
ATOM      6  C20 ZIN AC000       0.924  -4.984 -12.538  0.00  0.00     0.236 A 
ATOM      7  N21 ZIN AC000      -0.141  -4.739 -11.792  0.00  0.00    -0.224 NA
ATOM      8  C22 ZIN AC000      -0.070  -4.719 -10.468  0.00  0.00     0.142 A 
ATOM      9  C40 ZIN AC000       1.188  -4.968  -9.861  0.00  0.00     0.040 A 
ATOM     10  C41 ZIN AC000       1.352  -4.971  -8.475  0.00  0.00     0.032 A 
ENDROOT
BRANCH   8  11
ATOM     11  N23 ZIN AC000      -1.187  -4.463  -9.701  0.00  0.00    -0.340 N 
ATOM     12  H57 ZIN AC000      -1.105  -4.368  -8.739  0.00  0.00     0.167 HD
BRANCH  11  13
ATOM     13  C24 ZIN AC000      -2.441  -4.339 -10.312  0.00  0.00     0.035 A 
ATOM     14  C39 ZIN AC000      -3.376  -3.446  -9.804  0.00  0.00     0.056 A 
ATOM     15  C37 ZIN AC000      -4.611  -3.322 -10.410  0.00  0.00     0.069 A 
ATOM     16  C27 ZIN AC000      -4.921  -4.096 -11.520  0.00  0.00     0.091 A 
ATOM     17 Cl38 ZIN AC000      -5.778  -2.202  -9.780  0.00  0.00    -0.081 Cl
ATOM     18  C26 ZIN AC000      -3.990  -4.992 -12.023  0.00  0.00     0.041 A 
ATOM     19  C25 ZIN AC000      -2.752  -5.114 -11.421  0.00  0.00     0.032 A 
BRANCH  16  20
ATOM     20  O28 ZIN AC000      -6.139  -3.977 -12.113  0.00  0.00    -0.345 OA
BRANCH  20  21
ATOM     21  C29 ZIN AC000      -6.391  -4.805 -13.251  0.00  0.00     0.214 C 
BRANCH  21  22
ATOM     22  C30 ZIN AC000      -7.779  -4.537 -13.770  0.00  0.00    -0.031 A 
ATOM     23  C36 ZIN AC000      -7.983  -3.559 -14.726  0.00  0.00     0.051 A 
ATOM     24  C34 ZIN AC000      -9.258  -3.316 -15.207  0.00  0.00     0.117 A 
ATOM     25  C33 ZIN AC000     -10.330  -4.046 -14.722  0.00  0.00     0.042 A 
ATOM     26  F35 ZIN AC000      -9.457  -2.365 -16.145  0.00  0.00    -0.206 F 
ATOM     27  C32 ZIN AC000     -10.125  -5.019 -13.762  0.00  0.00     0.004 A 
ATOM     28  C31 ZIN AC000      -8.851  -5.264 -13.286  0.00  0.00     0.009 A 
ENDBRANCH  21  22
ENDBRANCH  20  21
ENDBRANCH  16  20
ENDBRANCH  11  13
ENDBRANCH   8  11
BRANCH   1  29
ATOM     29  C14 ZIN AC000       2.797  -5.218  -6.475  0.00  0.00     0.086 A 
ATOM     30  C13 ZIN AC000       3.967  -5.443  -5.820  0.00  0.00     0.040 A 
ATOM     31  C12 ZIN AC000       3.686  -5.350  -4.442  0.00  0.00     0.037 A 
ATOM     32  C11 ZIN AC000       2.372  -5.076  -4.325  0.00  0.00     0.079 A 
ATOM     33  O42 ZIN AC000       1.837  -5.003  -5.555  0.00  0.00    -0.313 OA
BRANCH  32  34
ATOM     34  C10 ZIN AC000       1.626  -4.889  -3.030  0.00  0.00     0.296 C 
BRANCH  34  35
ATOM     35  N7  ZIN AC000       1.657  -3.471  -2.646  0.00  0.00    -0.069 N 
ATOM     36  H8  ZIN AC000       1.221  -2.918  -3.369  0.00  0.00     0.277 HD
ATOM     37  H9  ZIN AC000       2.615  -3.176  -2.528  0.00  0.00     0.277 HD
BRANCH  35  38
ATOM     38  C6  ZIN AC000       0.930  -3.289  -1.383  0.00  0.00     0.247 C 
BRANCH  38  39
ATOM     39  C5  ZIN AC000       0.963  -1.812  -0.984  0.00  0.00     0.167 C 
BRANCH  39  40
ATOM     40  S2  ZIN AC000       0.064  -1.588   0.576  0.00  0.00     0.142 S 
ATOM     41  C1  ZIN AC000       0.230   0.198   0.850  0.00  0.00     0.161 C 
ATOM     42  O3  ZIN AC000       0.766  -2.271   1.605  0.00  0.00    -0.228 OA
ATOM     43  O4  ZIN AC000      -1.308  -1.887   0.355  0.00  0.00    -0.228 OA
ENDBRANCH  39  40
ENDBRANCH  38  39
ENDBRANCH  35  38
ENDBRANCH  34  35
ENDBRANCH  32  34
ENDBRANCH   1  29
TORSDOF 11
