REMARK  7 active torsions:
REMARK  status: ('A' for Active; 'I' for Inactive)
REMARK    1  A    between atoms: C2_2  and  C3_3 
REMARK    2  A    between atoms: C3_3  and  N4_4 
REMARK    3  A    between atoms: N4_4  and  C5_5 
REMARK    4  A    between atoms: C5_5  and  C8_7 
REMARK       I    between atoms: C8_7  and  N10_9 
REMARK    5  A    between atoms: N10_9  and  C11_10 
REMARK    6  A    between atoms: C12_11  and  C13_12 
REMARK    7  A    between atoms: C13_12  and  O15_14 
ROOT
ATOM      1  C8  ZIN AC000      -3.141  -3.680  -0.947  0.00  0.00     0.255 C 
ATOM      2  O9  ZIN AC000      -2.346  -3.841  -1.848  0.00  0.00    -0.271 OA
ATOM      3  N10 ZIN AC000      -3.945  -4.694  -0.568  0.00  0.00    -0.323 N 
ATOM      4  H32 ZIN AC000      -4.522  -4.593   0.205  0.00  0.00     0.169 HD
ENDROOT
BRANCH   3   5
ATOM      5  C11 ZIN AC000      -3.947  -5.889  -1.288  0.00  0.00     0.064 A 
ATOM      6  C19 ZIN AC000      -2.806  -6.621  -1.554  0.00  0.00    -0.027 A 
ATOM      7  C18 ZIN AC000      -3.002  -7.741  -2.255  0.00  0.00     0.059 A 
ATOM      8  C20 ZIN AC000      -1.441  -6.192  -1.080  0.00  0.00     0.051 C 
ATOM      9  S17 ZIN AC000      -4.650  -7.947  -2.641  0.00  0.00    -0.093 SA
ATOM     10  C12 ZIN AC000      -5.084  -6.458  -1.812  0.00  0.00     0.107 A 
BRANCH  10  11
ATOM     11  C13 ZIN AC000      -6.392  -5.930  -1.703  0.00  0.00     0.302 C 
ATOM     12  O14 ZIN AC000      -6.566  -4.834  -1.202  0.00  0.00    -0.259 OA
BRANCH  11  13
ATOM     13  O15 ZIN AC000      -7.447  -6.641  -2.154  0.00  0.00    -0.322 OA
ATOM     14  C16 ZIN AC000      -8.738  -6.047  -2.011  0.00  0.00     0.213 C 
ENDBRANCH  11  13
ENDBRANCH  10  11
ENDBRANCH   3   5
BRANCH   1  15
ATOM     15  C5  ZIN AC000      -3.231  -2.348  -0.249  0.00  0.00     0.307 C 
ATOM     16  C7  ZIN AC000      -2.922  -2.529   1.238  0.00  0.00     0.053 C 
BRANCH  15  17
ATOM     17  N4  ZIN AC000      -2.259  -1.419  -0.842  0.00  0.00     0.096 N 
ATOM     18  H28 ZIN AC000      -2.115  -1.621  -1.819  0.00  0.00     0.316 HD
BRANCH  17  19
ATOM     19  C3  ZIN AC000      -2.679  -0.024  -0.649  0.00  0.00     0.270 C 
BRANCH  19  20
ATOM     20  C2  ZIN AC000      -1.644   0.911  -1.278  0.00  0.00     0.025 C 
ATOM     21  C1  ZIN AC000      -2.081   2.364  -1.078  0.00  0.00     0.007 C 
ENDBRANCH  19  20
ENDBRANCH  17  19
ENDBRANCH  15  17
ENDBRANCH   1  15
TORSDOF 7
