REMARK  3 active torsions:
REMARK  status: ('A' for Active; 'I' for Inactive)
REMARK    1  A    between atoms: C2_2  and  O3_3 
REMARK    2  A    between atoms: C15_12  and  O16_13 
REMARK    3  A    between atoms: C17_14  and  C18_15 
ROOT
ATOM      1  C1  <0> d           0.433   1.688   0.100  0.00  0.00     0.046 C 
ATOM      2  C2  <0> d           0.368   0.166  -0.036  0.00  0.00     0.062 C 
ATOM      3  C4  <0> d          -1.097  -0.292  -0.243  0.00  0.00     0.038 C 
ATOM      4  C5  <0> d          -1.470  -1.146   1.000  0.00  0.00     0.009 C 
ATOM      5  C6  <0> d          -0.499  -0.634   2.070  0.00  0.00     0.001 C 
ATOM      6  C8  <0> d          -0.234  -1.579   3.228  0.00  0.00    -0.005 C 
ATOM      7  C10 <0> d          -1.518  -1.808   4.028  0.00  0.00     0.006 C 
ATOM      8  C11 <0> d          -1.212  -2.745   5.195  0.00  0.00     0.006 C 
ATOM      9  C12 <0> d          -0.164  -2.116   6.117  0.00  0.00     0.000 C 
ATOM     10  C14 <0> d           0.164  -3.132   7.220  0.00  0.00     0.070 C 
ATOM     11  C15 <0> d           1.368  -2.698   7.998  0.00  0.00     0.053 C 
ATOM     12  C17 <0> d           2.238  -1.784   7.558  0.00  0.00     0.009 C 
ATOM     13  C20 <0> d           2.096  -1.074   6.246  0.00  0.00     0.054 C 
ATOM     14  C21 <0> d           1.112  -1.805   5.326  0.00  0.00    -0.032 C 
ATOM     15  C22 <0> d           1.731  -3.116   4.836  0.00  0.00     0.016 C 
ATOM     16  C23 <0> d           0.812  -0.913   4.132  0.00  0.00    -0.001 C 
ATOM     17  C25 <0> d           2.103  -0.608   3.380  0.00  0.00     0.007 C 
ATOM     18  C26 <0> d           1.833   0.225   2.116  0.00  0.00     0.013 C 
ATOM     19  C27 <0> d           0.819  -0.500   1.260  0.00  0.00    -0.009 C 
ATOM     20  C28 <0> d           1.305  -1.922   0.974  0.00  0.00     0.018 C 
ENDROOT
BRANCH   2  21
ATOM     21  O3  <0> d           1.184  -0.269  -1.126  0.00  0.00    -0.389 OA
ATOM     22  H32 <0> d           0.931   0.107  -1.980  0.00  0.00     0.210 HD
ENDBRANCH   2  21
BRANCH  12  23
ATOM     23  C18 <0> d           3.345  -1.472   8.368  0.00  0.00     0.268 C 
ATOM     24  O19 <0> d           4.103  -0.581   8.043  0.00  0.00    -0.302 OA
ENDBRANCH  12  23
BRANCH  11  25
ATOM     25  O16 <0> d           1.585  -3.258   9.204  0.00  0.00    -0.364 OA
ATOM     26  H43 <0> d           1.209  -4.136   9.354  0.00  0.00     0.217 HD
ENDBRANCH  11  25
TORSDOF 3
