REMARK  2 active torsions:
REMARK  status: ('A' for Active; 'I' for Inactive)
REMARK    1  A    between atoms: N1_1  and  C2_2 
REMARK    2  A    between atoms: N9_9  and  C10_10 
ROOT
ATOM      1  C2  ZIN AC000       0.002  -0.004   0.002  0.00  0.00     0.034 A 
ATOM      2  C3  ZIN AC000      -1.192  -0.718   0.004  0.00  0.00     0.029 A 
ATOM      3  C4  ZIN AC000      -1.173  -2.100  -0.004  0.00  0.00     0.003 A 
ATOM      4  C5  ZIN AC000       0.026  -2.783  -0.013  0.00  0.00     0.018 A 
ATOM      5  C6  ZIN AC000       1.231  -2.077  -0.015  0.00  0.00     0.042 A 
ATOM      6  C7  ZIN AC000       1.208  -0.681  -0.013  0.00  0.00     0.002 A 
ATOM      7  C8  ZIN AC000       2.646  -0.230  -0.016  0.00  0.00     0.169 A 
ATOM      8  N9  ZIN AC000       3.460  -1.451  -0.019  0.00  0.00    -0.330 N 
ATOM      9  C19 ZIN AC000       2.640  -2.516  -0.023  0.00  0.00     0.255 A 
ATOM     10  O20 ZIN AC000       3.006  -3.675  -0.026  0.00  0.00    -0.267 OA
ENDROOT
BRANCH   8  11
ATOM     11  C10 ZIN AC000       4.924  -1.501  -0.021  0.00  0.00     0.180 C 
ATOM     12  C17 ZIN AC000       5.401  -2.229  -1.251  0.00  0.00     0.247 C 
ATOM     13  N16 ZIN AC000       6.536  -2.945  -1.239  0.00  0.00    -0.296 N 
ATOM     14  O18 ZIN AC000       4.746  -2.169  -2.269  0.00  0.00    -0.271 OA
ATOM     15  C14 ZIN AC000       7.304  -3.064  -0.146  0.00  0.00     0.224 C 
ATOM     16  H32 ZIN AC000       6.811  -3.393  -2.054  0.00  0.00     0.171 HD
ATOM     17  C13 ZIN AC000       6.937  -2.383   1.146  0.00  0.00     0.106 C 
ATOM     18  O15 ZIN AC000       8.313  -3.733  -0.200  0.00  0.00    -0.273 OA
ATOM     19  C12 ZIN AC000       5.413  -2.245   1.226  0.00  0.00     0.044 C 
ENDBRANCH   8  11
BRANCH   1  20
ATOM     20  N1  ZIN AC000      -0.017   1.393   0.010  0.00  0.00    -0.399 N 
ATOM     21  H21 ZIN AC000       0.817   1.889   0.004  0.00  0.00     0.156 HD
ATOM     22  H22 ZIN AC000      -0.863   1.866   0.016  0.00  0.00     0.156 HD
ENDBRANCH   1  20
TORSDOF 2
