REMARK  6 active torsions:
REMARK  status: ('A' for Active; 'I' for Inactive)
REMARK    1  A    between atoms: C3_3  and  C4_4 
REMARK       I    between atoms: C4_4  and  N6_6 
REMARK    2  A    between atoms: N6_6  and  C7_7 
REMARK    3  A    between atoms: C10_10  and  N11_11 
REMARK    4  A    between atoms: C26_24  and  C27_25 
REMARK    5  A    between atoms: C30_28  and  O31_29 
REMARK    6  A    between atoms: O31_29  and  C32_30 
ROOT
ATOM      1  C1  ZIN AC000      -0.524   1.511   0.025  0.00  0.00     0.050 C 
ATOM      2  C2  ZIN AC000      -0.318   0.018   0.021  0.00  0.00    -0.035 A 
ATOM      3  C3  ZIN AC000      -0.246  -0.674  -1.186  0.00  0.00     0.039 A 
ATOM      4  C23 ZIN AC000      -0.054  -2.058  -1.183  0.00  0.00     0.017 A 
ATOM      5  C24 ZIN AC000       0.064  -2.737   0.013  0.00  0.00     0.002 A 
ATOM      6  C25 ZIN AC000      -0.007  -2.055   1.212  0.00  0.00     0.013 A 
ATOM      7  C26 ZIN AC000      -0.192  -0.673   1.222  0.00  0.00    -0.019 A 
ENDROOT
BRANCH   3   8
ATOM      8  C4  ZIN AC000      -0.371   0.053  -2.467  0.00  0.00     0.256 C 
ATOM      9  O5  ZIN AC000      -0.426   1.268  -2.473  0.00  0.00    -0.267 OA
ATOM     10  N6  ZIN AC000      -0.425  -0.630  -3.628  0.00  0.00    -0.322 N 
ATOM     11  H41 ZIN AC000      -0.453  -1.599  -3.619  0.00  0.00     0.169 HD
BRANCH  10  12
ATOM     12  C7  ZIN AC000      -0.442   0.060  -4.847  0.00  0.00     0.052 A 
ATOM     13  C22 ZIN AC000      -1.126  -0.456  -5.937  0.00  0.00     0.148 A 
ATOM     14  N21 ZIN AC000      -1.149   0.191  -7.087  0.00  0.00    -0.247 NA
ATOM     15  C10 ZIN AC000      -0.519   1.343  -7.250  0.00  0.00     0.105 A 
ATOM     16  C9  ZIN AC000       0.193   1.919  -6.202  0.00  0.00     0.047 A 
ATOM     17  C8  ZIN AC000       0.235   1.272  -4.980  0.00  0.00     0.034 A 
BRANCH  15  18
ATOM     18  N11 ZIN AC000      -0.568   1.986  -8.483  0.00  0.00    -0.263 NA
ATOM     19  C20 ZIN AC000      -1.366   1.216  -9.448  0.00  0.00     0.128 C 
ATOM     20  C17 ZIN AC000      -1.443   1.985 -10.769  0.00  0.00     0.131 C 
ATOM     21  O16 ZIN AC000      -0.119   2.241 -11.244  0.00  0.00    -0.379 OA
ATOM     22  C19 ZIN AC000      -2.205   1.153 -11.802  0.00  0.00     0.040 C 
ATOM     23  C13 ZIN AC000       0.687   2.990 -10.330  0.00  0.00     0.131 C 
ATOM     24  C12 ZIN AC000       0.785   2.230  -9.004  0.00  0.00     0.128 C 
ATOM     25  C15 ZIN AC000       2.087   3.178 -10.917  0.00  0.00     0.040 C 
ENDBRANCH  15  18
ENDBRANCH  10  12
ENDBRANCH   3   8
BRANCH   7  26
ATOM     26  C27 ZIN AC000      -0.268   0.057   2.511  0.00  0.00    -0.025 A 
ATOM     27  C37 ZIN AC000      -1.123  -0.389   3.517  0.00  0.00     0.015 A 
ATOM     28  C36 ZIN AC000      -1.188   0.290   4.716  0.00  0.00     0.038 A 
ATOM     29  C30 ZIN AC000      -0.409   1.421   4.918  0.00  0.00     0.078 A 
ATOM     30  C29 ZIN AC000       0.440   1.871   3.916  0.00  0.00     0.038 A 
ATOM     31  C28 ZIN AC000       0.512   1.194   2.716  0.00  0.00     0.015 A 
BRANCH  29  32
ATOM     32  O31 ZIN AC000      -0.479   2.091   6.098  0.00  0.00    -0.255 OA
BRANCH  32  33
ATOM     33  C32 ZIN AC000      -1.373   1.573   7.085  0.00  0.00     0.530 C 
ATOM     34  F33 ZIN AC000      -0.998   0.267   7.416  0.00  0.00    -0.144 F 
ATOM     35  F34 ZIN AC000      -1.320   2.377   8.230  0.00  0.00    -0.144 F 
ATOM     36  F35 ZIN AC000      -2.677   1.570   6.578  0.00  0.00    -0.144 F 
ENDBRANCH  32  33
ENDBRANCH  29  32
ENDBRANCH   7  26
TORSDOF 6
