REMARK  7 active torsions:
REMARK  status: ('A' for Active; 'I' for Inactive)
REMARK    1  A    between atoms: C2_2  and  O3_3 
REMARK    2  A    between atoms: C2_2  and  C4_4 
REMARK    3  A    between atoms: C2_2  and  C15_15 
REMARK    4  A    between atoms: C4_4  and  S5_5 
REMARK    5  A    between atoms: S5_5  and  C8_8 
REMARK       I    between atoms: C15_15  and  N17_17 
REMARK    6  A    between atoms: N17_17  and  C18_18 
REMARK    7  A    between atoms: C24_24  and  C25_25 
ROOT
ATOM      1  C18 ZIN AC000       2.696  -1.148  -2.359  0.00  0.00     0.035 A 
ATOM      2  C19 ZIN AC000       2.197  -0.917  -3.636  0.00  0.00     0.031 A 
ATOM      3  C20 ZIN AC000       2.831  -1.456  -4.733  0.00  0.00     0.026 A 
ATOM      4  C21 ZIN AC000       3.978  -2.236  -4.562  0.00  0.00     0.059 A 
ATOM      5  C22 ZIN AC000       4.640  -2.799  -5.700  0.00  0.00     0.100 C 
ATOM      6  N23 ZIN AC000       5.165  -3.244  -6.603  0.00  0.00    -0.191 NA
ATOM      7  C24 ZIN AC000       4.477  -2.467  -3.276  0.00  0.00     0.070 A 
ATOM      8  C29 ZIN AC000       3.841  -1.920  -2.185  0.00  0.00     0.047 A 
ENDROOT
BRANCH   7   9
ATOM      9  C25 ZIN AC000       5.713  -3.307  -3.087  0.00  0.00     0.419 C 
ATOM     10  F26 ZIN AC000       6.014  -3.392  -1.723  0.00  0.00    -0.166 F 
ATOM     11  F27 ZIN AC000       5.488  -4.590  -3.596  0.00  0.00    -0.166 F 
ATOM     12  F28 ZIN AC000       6.786  -2.718  -3.765  0.00  0.00    -0.166 F 
ENDBRANCH   7   9
BRANCH   1  13
ATOM     13  N17 ZIN AC000       2.051  -0.601  -1.250  0.00  0.00    -0.325 N 
ATOM     14  C15 ZIN AC000       0.707  -0.492  -1.237  0.00  0.00     0.257 C 
ATOM     15  O16 ZIN AC000       0.066  -0.792  -2.221  0.00  0.00    -0.270 OA
ATOM     16  H40 ZIN AC000       2.569  -0.298  -0.487  0.00  0.00     0.169 HD
BRANCH  14  17
ATOM     17  C2  ZIN AC000       0.003   0.002   0.000  0.00  0.00     0.148 C 
ATOM     18  C1  ZIN AC000      -0.021   1.532  -0.003  0.00  0.00     0.057 C 
BRANCH  17  19
ATOM     19  O3  ZIN AC000       0.696  -0.461   1.161  0.00  0.00    -0.380 OA
ATOM     20  H33 ZIN AC000       0.750  -1.425   1.228  0.00  0.00     0.211 HD
ENDBRANCH  17  19
BRANCH  17  21
ATOM     21  C4  ZIN AC000      -1.432  -0.530   0.017  0.00  0.00     0.193 C 
BRANCH  21  22
ATOM     22  S5  ZIN AC000      -2.324   0.183   1.426  0.00  0.00     0.178 S 
ATOM     23  O6  ZIN AC000      -1.808  -0.321   2.650  0.00  0.00    -0.222 OA
ATOM     24  O7  ZIN AC000      -2.527   1.576   1.235  0.00  0.00    -0.222 OA
BRANCH  22  25
ATOM     25  C8  ZIN AC000      -3.941  -0.510   1.319  0.00  0.00     0.059 A 
ATOM     26  C14 ZIN AC000      -4.226  -1.700   1.962  0.00  0.00     0.026 A 
ATOM     27  C13 ZIN AC000      -5.495  -2.243   1.883  0.00  0.00     0.044 A 
ATOM     28  C11 ZIN AC000      -6.477  -1.599   1.150  0.00  0.00     0.116 A 
ATOM     29  C10 ZIN AC000      -6.189  -0.410   0.502  0.00  0.00     0.044 A 
ATOM     30  F12 ZIN AC000      -7.717  -2.131   1.068  0.00  0.00    -0.206 F 
ATOM     31  C9  ZIN AC000      -4.921   0.133   0.587  0.00  0.00     0.026 A 
ENDBRANCH  22  25
ENDBRANCH  21  22
ENDBRANCH  17  21
ENDBRANCH  14  17
ENDBRANCH   1  13
TORSDOF 7
