REMARK  13 active torsions:
REMARK  status: ('A' for Active; 'I' for Inactive)
REMARK    1  A    between atoms: N1_1  and  C5_5 
REMARK    2  A    between atoms: C5_5  and  C6_6 
REMARK    3  A    between atoms: C6_6  and  C7_7 
REMARK    4  A    between atoms: C7_7  and  C8_8 
REMARK    5  A    between atoms: C8_8  and  C9_9 
REMARK    6  A    between atoms: C9_9  and  N11_10 
REMARK    7  A    between atoms: C9_9  and  C25_23 
REMARK    8  A    between atoms: N11_10  and  C12_11 
REMARK    9  A    between atoms: C12_11  and  C14_12 
REMARK   10  A    between atoms: C12_11  and  C22_20 
REMARK   11  A    between atoms: C14_12  and  C15_13 
REMARK   12  A    between atoms: C15_13  and  C16_14 
REMARK       I    between atoms: C25_23  and  N27_25 
REMARK   13  A    between atoms: C31_29  and  C33_30 
ROOT
ATOM      1  C9  ZIN AC000      -0.651   1.452   6.213  0.00  0.00     0.312 C 
ENDROOT
BRANCH   1   2
ATOM      2  C8  ZIN AC000       0.065   0.958   4.954  0.00  0.00     0.045 C 
BRANCH   2   3
ATOM      3  C7  ZIN AC000      -0.675   1.465   3.715  0.00  0.00     0.004 C 
BRANCH   3   4
ATOM      4  C6  ZIN AC000       0.041   0.972   2.456  0.00  0.00     0.027 C 
BRANCH   4   5
ATOM      5  C5  ZIN AC000      -0.699   1.479   1.216  0.00  0.00     0.229 C 
BRANCH   5   6
ATOM      6  N1  ZIN AC000      -0.012   1.005   0.008  0.00  0.00    -0.079 N 
ATOM      7  H2  ZIN AC000       0.002  -0.004   0.002  0.00  0.00     0.274 HD
ATOM      8  H3  ZIN AC000       0.935   1.354   0.000  0.00  0.00     0.274 HD
ATOM      9  H4  ZIN AC000      -0.500   1.339  -0.810  0.00  0.00     0.274 HD
ENDBRANCH   5   6
ENDBRANCH   4   5
ENDBRANCH   3   4
ENDBRANCH   2   3
ENDBRANCH   1   2
BRANCH   1  10
ATOM     10  N11 ZIN AC000      -0.567   2.917   6.282  0.00  0.00     0.112 N 
ATOM     11  H44 ZIN AC000       0.324   3.211   6.652  0.00  0.00     0.318 HD
BRANCH  10  12
ATOM     12  C12 ZIN AC000      -1.674   3.471   7.072  0.00  0.00     0.321 C 
BRANCH  12  13
ATOM     13  C14 ZIN AC000      -1.261   4.827   7.647  0.00  0.00     0.051 C 
BRANCH  13  14
ATOM     14  C15 ZIN AC000      -0.113   4.632   8.640  0.00  0.00     0.041 C 
BRANCH  14  15
ATOM     15  C16 ZIN AC000       0.294   5.968   9.206  0.00  0.00    -0.058 A 
ATOM     16  C21 ZIN AC000      -0.311   6.445  10.354  0.00  0.00     0.007 A 
ATOM     17  C20 ZIN AC000       0.066   7.669  10.876  0.00  0.00     0.001 A 
ATOM     18  C19 ZIN AC000       1.040   8.419  10.245  0.00  0.00     0.000 A 
ATOM     19  C18 ZIN AC000       1.641   7.945   9.094  0.00  0.00     0.001 A 
ATOM     20  C17 ZIN AC000       1.267   6.719   8.575  0.00  0.00     0.007 A 
ENDBRANCH  14  15
ENDBRANCH  13  14
ENDBRANCH  12  13
BRANCH  12  21
ATOM     21  C22 ZIN AC000      -2.883   3.647   6.189  0.00  0.00     0.207 C 
ATOM     22  O23 ZIN AC000      -2.827   3.339   5.011  0.00  0.00    -0.646 OA
ATOM     23  O24 ZIN AC000      -3.917   4.097   6.654  0.00  0.00    -0.646 OA
ENDBRANCH  12  21
ENDBRANCH  10  12
ENDBRANCH   1  10
BRANCH   1  24
ATOM     24  C25 ZIN AC000       0.004   0.853   7.431  0.00  0.00     0.254 C 
ATOM     25  O26 ZIN AC000       0.493   1.575   8.273  0.00  0.00    -0.271 OA
ATOM     26  N27 ZIN AC000       0.046  -0.485   7.584  0.00  0.00    -0.336 N 
ATOM     27  C31 ZIN AC000       0.651  -1.200   8.718  0.00  0.00     0.188 C 
ATOM     28  C28 ZIN AC000      -0.501  -1.476   6.639  0.00  0.00     0.127 C 
ATOM     29  C30 ZIN AC000       0.436  -2.708   8.476  0.00  0.00     0.038 C 
ATOM     30  C29 ZIN AC000      -0.767  -2.738   7.497  0.00  0.00     0.022 C 
BRANCH  27  31
ATOM     31  C33 ZIN AC000       2.125  -0.898   8.798  0.00  0.00     0.196 C 
ATOM     32  O34 ZIN AC000       2.751  -0.639   7.784  0.00  0.00    -0.646 OA
ATOM     33  O35 ZIN AC000       2.693  -0.914   9.877  0.00  0.00    -0.646 OA
ENDBRANCH  27  31
ENDBRANCH   1  24
TORSDOF 13
