REMARK  2 active torsions:
REMARK  status: ('A' for Active; 'I' for Inactive)
REMARK    1  A    between atoms: O2_2  and  C3_3 
REMARK    2  A    between atoms: C3_3  and  C5_5 
ROOT
ATOM      1  C5  <0> d          -1.247  -2.108   0.003  0.00  0.00     0.057 A 
ATOM      2  C6  <0> d          -2.479  -2.773   0.005  0.00  0.00     0.020 A 
ATOM      3  C7  <0> d          -2.478  -4.157  -0.002  0.00  0.00     0.020 A 
ATOM      4  C8  <0> d          -1.271  -4.832  -0.011  0.00  0.00     0.116 A 
ATOM      5  N9  <0> d          -0.125  -4.180  -0.013  0.00  0.00    -0.272 NA
ATOM      6  C10 <0> d          -0.073  -2.864  -0.013  0.00  0.00     0.133 A 
ENDROOT
BRANCH   1   7
ATOM      7  C3  <0> d          -1.190  -0.632   0.010  0.00  0.00     0.294 C 
ATOM      8  O4  <0> d          -2.217   0.016   0.023  0.00  0.00    -0.259 OA
BRANCH   7   9
ATOM      9  O2  <0> d           0.002  -0.004   0.002  0.00  0.00    -0.322 OA
ATOM     10  C1  <0> d          -0.018   1.448   0.010  0.00  0.00     0.213 C 
ENDBRANCH   7   9
ENDBRANCH   1   7
TORSDOF 2
