REMARK  3 active torsions:
REMARK  status: ('A' for Active; 'I' for Inactive)
REMARK    1  A    between atoms: C8_8  and  C9_9 
REMARK    2  A    between atoms: C11_11  and  C12_12 
REMARK    3  A    between atoms: N19_19  and  C20_20 
ROOT
ATOM      1  N1  <0> d           1.419  -2.546   0.930  0.00  0.00    -0.191 NA
ATOM      2  C2  <0> d           0.854  -1.617   0.602  0.00  0.00     0.100 C 
ATOM      3  C3  <0> d           0.140  -0.447   0.187  0.00  0.00     0.055 A 
ATOM      4  C4  <0> d          -1.254  -0.459   0.126  0.00  0.00     0.023 A 
ATOM      5  C5  <0> d          -1.936   0.672  -0.273  0.00  0.00     0.002 A 
ATOM      6  C6  <0> d          -1.246   1.824  -0.615  0.00  0.00     0.001 A 
ATOM      7  C7  <0> d           0.133   1.855  -0.562  0.00  0.00     0.014 A 
ATOM      8  C8  <0> d           0.841   0.726  -0.155  0.00  0.00     0.000 A 
ENDROOT
BRANCH   8   9
ATOM      9  C9  <0> d           2.318   0.755  -0.097  0.00  0.00     0.045 A 
ATOM     10  C26 <0> d           3.085   0.699  -1.287  0.00  0.00     0.263 A 
ATOM     11  N19 <0> d           4.429   0.732  -1.230  0.00  0.00    -0.288 N 
ATOM     12  O27 <0> d           2.524   0.631  -2.368  0.00  0.00    -0.267 OA
ATOM     13  C18 <0> d           5.078   0.806  -0.042  0.00  0.00     0.114 A 
ATOM     14  C11 <0> d           4.378   0.857   1.143  0.00  0.00     0.010 A 
ATOM     15  C10 <0> d           2.970   0.832   1.123  0.00  0.00     0.033 A 
BRANCH  11  16
ATOM     16  C20 <0> d           5.170   0.682  -2.417  0.00  0.00     0.042 A 
ATOM     17  C25 <0> d           5.564  -0.543  -2.940  0.00  0.00     0.030 A 
ATOM     18  C24 <0> d           6.289  -0.589  -4.114  0.00  0.00     0.002 A 
ATOM     19  C23 <0> d           6.633   0.583  -4.763  0.00  0.00     0.000 A 
ATOM     20  C22 <0> d           6.247   1.804  -4.242  0.00  0.00     0.002 A 
ATOM     21  C21 <0> d           5.516   1.857  -3.071  0.00  0.00     0.030 A 
ENDBRANCH  11  16
BRANCH  14  22
ATOM     22  C12 <0> d           5.104   0.939   2.434  0.00  0.00     0.068 A 
ATOM     23  N17 <0> d           4.421   0.987   3.571  0.00  0.00    -0.260 NA
ATOM     24  C16 <0> d           5.028   1.055   4.738  0.00  0.00     0.117 A 
ATOM     25  C15 <0> d           6.407   1.089   4.821  0.00  0.00     0.019 A 
ATOM     26  C14 <0> d           7.160   1.046   3.655  0.00  0.00     0.004 A 
ATOM     27  C13 <0> d           6.497   0.969   2.443  0.00  0.00     0.032 A 
ENDBRANCH  14  22
ENDBRANCH   8   9
TORSDOF 3
