REMARK  10 active torsions:
REMARK  status: ('A' for Active; 'I' for Inactive)
REMARK    1  A    between atoms: O2_2  and  C3_3 
REMARK    2  A    between atoms: C3_3  and  C4_4 
REMARK    3  A    between atoms: C4_4  and  O5_5 
REMARK    4  A    between atoms: O5_5  and  C6_6 
REMARK    5  A    between atoms: C6_6  and  C8_8 
REMARK    6  A    between atoms: C14_14  and  C15_15 
REMARK    7  A    between atoms: C15_15  and  O17_17 
REMARK    8  A    between atoms: O17_17  and  C18_18 
REMARK    9  A    between atoms: C21_21  and  C23_22 
REMARK   10  A    between atoms: C27_26  and  N28_27 
ROOT
ATOM      1  C8  ZIN AC000       2.117  -4.329  -1.529  0.00  0.00     0.052 C 
ATOM      2  C9  ZIN AC000       2.307  -5.652  -1.669  0.00  0.00     0.018 C 
ATOM      3  C10 ZIN AC000       1.694  -6.602  -0.672  0.00  0.00     0.069 C 
ATOM      4  N11 ZIN AC000       3.051  -6.147  -2.705  0.00  0.00    -0.362 N 
ATOM      5  C12 ZIN AC000       3.310  -5.371  -3.802  0.00  0.00     0.018 C 
ATOM      6  C13 ZIN AC000       3.766  -6.021  -5.082  0.00  0.00     0.069 C 
ATOM      7  C14 ZIN AC000       3.162  -4.036  -3.750  0.00  0.00     0.052 C 
ATOM      8  C21 ZIN AC000       2.712  -3.345  -2.496  0.00  0.00     0.101 C 
ATOM      9  H42 ZIN AC000       3.396  -7.053  -2.662  0.00  0.00     0.165 HD
ENDROOT
BRANCH   8  10
ATOM     10  C23 ZIN AC000       3.897  -2.680  -1.844  0.00  0.00    -0.042 A 
ATOM     11  C31 ZIN AC000       3.899  -1.311  -1.648  0.00  0.00     0.044 A 
ATOM     12  C27 ZIN AC000       4.984  -0.702  -1.046  0.00  0.00     0.103 A 
ATOM     13  C26 ZIN AC000       6.070  -1.459  -0.647  0.00  0.00     0.036 A 
ATOM     14  C25 ZIN AC000       6.069  -2.826  -0.848  0.00  0.00     0.003 A 
ATOM     15  C24 ZIN AC000       4.982  -3.437  -1.447  0.00  0.00     0.008 A 
BRANCH  12  16
ATOM     16  N28 ZIN AC000       4.984   0.763  -0.830  0.00  0.00    -0.116 N 
ATOM     17  O29 ZIN AC000       5.941   1.301  -0.302  0.00  0.00    -0.532 OA
ATOM     18  O30 ZIN AC000       4.027   1.430  -1.181  0.00  0.00    -0.532 OA
ENDBRANCH  12  16
ENDBRANCH   8  10
BRANCH   1  19
ATOM     19  C6  ZIN AC000       1.336  -3.852  -0.451  0.00  0.00     0.292 C 
ATOM     20  O7  ZIN AC000       0.172  -3.545  -0.632  0.00  0.00    -0.259 OA
BRANCH  19  21
ATOM     21  O5  ZIN AC000       1.880  -3.739   0.779  0.00  0.00    -0.316 OA
BRANCH  21  22
ATOM     22  C4  ZIN AC000       1.033  -3.251   1.821  0.00  0.00     0.205 C 
BRANCH  22  23
ATOM     23  C3  ZIN AC000       1.819  -3.191   3.132  0.00  0.00     0.193 C 
BRANCH  23  24
ATOM     24  O2  ZIN AC000       2.868  -2.228   3.015  0.00  0.00    -0.394 OA
ATOM     25  C1  ZIN AC000       3.668  -2.093   4.192  0.00  0.00     0.201 C 
ENDBRANCH  23  24
ENDBRANCH  22  23
ENDBRANCH  21  22
ENDBRANCH  19  21
ENDBRANCH   1  19
BRANCH   7  26
ATOM     26  C15 ZIN AC000       3.432  -3.265  -4.905  0.00  0.00     0.292 C 
ATOM     27  O16 ZIN AC000       3.792  -3.812  -5.931  0.00  0.00    -0.259 OA
BRANCH  26  28
ATOM     28  O17 ZIN AC000       3.288  -1.924  -4.870  0.00  0.00    -0.313 OA
BRANCH  28  29
ATOM     29  C18 ZIN AC000       3.577  -1.209  -6.072  0.00  0.00     0.124 C 
ATOM     30  C19 ZIN AC000       2.715   0.054  -6.135  0.00  0.00     0.040 C 
ATOM     31  C20 ZIN AC000       5.056  -0.817  -6.090  0.00  0.00     0.040 C 
ENDBRANCH  28  29
ENDBRANCH  26  28
ENDBRANCH   7  26
TORSDOF 10
