REMARK  11 active torsions:
REMARK  status: ('A' for Active; 'I' for Inactive)
REMARK    1  A    between atoms: O2_2  and  C3_3 
REMARK    2  A    between atoms: C3_3  and  C5_5 
REMARK    3  A    between atoms: C11_11  and  C12_12 
REMARK    4  A    between atoms: C12_12  and  O14_14 
REMARK    5  A    between atoms: O14_14  and  C15_15 
REMARK    6  A    between atoms: C15_15  and  C16_16 
REMARK    7  A    between atoms: C16_16  and  N17_17 
REMARK    8  A    between atoms: N17_17  and  C19_19 
REMARK    9  A    between atoms: C19_19  and  C20_20 
REMARK   10  A    between atoms: C26_26  and  C28_27 
REMARK   11  A    between atoms: C32_31  and  N33_32 
ROOT
ATOM      1  C5  ZIN AC000       2.275  -1.624  -0.411  0.00  0.00     0.052 C 
ATOM      2  C6  ZIN AC000       2.798  -2.080  -1.562  0.00  0.00     0.018 C 
ATOM      3  C7  ZIN AC000       3.671  -1.175  -2.393  0.00  0.00     0.069 C 
ATOM      4  N8  ZIN AC000       2.549  -3.356  -1.989  0.00  0.00    -0.362 N 
ATOM      5  C9  ZIN AC000       2.079  -4.297  -1.113  0.00  0.00     0.018 C 
ATOM      6  C10 ZIN AC000       2.183  -5.759  -1.465  0.00  0.00     0.069 C 
ATOM      7  C11 ZIN AC000       1.524  -3.933   0.056  0.00  0.00     0.052 C 
ATOM      8  C26 ZIN AC000       1.397  -2.490   0.448  0.00  0.00     0.101 C 
ATOM      9  H43 ZIN AC000       2.705  -3.595  -2.916  0.00  0.00     0.165 HD
ENDROOT
BRANCH   7  10
ATOM     10  C12 ZIN AC000       1.056  -4.933   0.940  0.00  0.00     0.292 C 
ATOM     11  O13 ZIN AC000       1.274  -6.106   0.702  0.00  0.00    -0.259 OA
BRANCH  10  12
ATOM     12  O14 ZIN AC000       0.368  -4.585   2.048  0.00  0.00    -0.316 OA
BRANCH  12  13
ATOM     13  C15 ZIN AC000       0.046  -5.632   2.966  0.00  0.00     0.209 C 
BRANCH  13  14
ATOM     14  C16 ZIN AC000      -0.868  -5.083   4.064  0.00  0.00     0.299 C 
BRANCH  14  15
ATOM     15  N17 ZIN AC000      -2.241  -4.979   3.552  0.00  0.00     0.090 N 
ATOM     16  C18 ZIN AC000      -2.830  -6.309   3.351  0.00  0.00     0.310 C 
BRANCH  15  17
ATOM     17  C19 ZIN AC000      -3.075  -4.163   4.445  0.00  0.00     0.310 C 
BRANCH  17  18
ATOM     18  C20 ZIN AC000      -4.455  -4.025   3.855  0.00  0.00    -0.030 A 
ATOM     19  C25 ZIN AC000      -5.468  -4.872   4.263  0.00  0.00     0.009 A 
ATOM     20  C24 ZIN AC000      -6.735  -4.743   3.725  0.00  0.00     0.001 A 
ATOM     21  C23 ZIN AC000      -6.987  -3.772   2.774  0.00  0.00     0.000 A 
ATOM     22  C22 ZIN AC000      -5.972  -2.928   2.363  0.00  0.00     0.001 A 
ATOM     23  C21 ZIN AC000      -4.706  -3.055   2.903  0.00  0.00     0.009 A 
ENDBRANCH  17  18
ENDBRANCH  15  17
ENDBRANCH  14  15
ENDBRANCH  13  14
ENDBRANCH  12  13
ENDBRANCH  10  12
ENDBRANCH   7  10
BRANCH   8  24
ATOM     24  C28 ZIN AC000      -0.035  -2.053   0.272  0.00  0.00    -0.042 A 
ATOM     25  C36 ZIN AC000      -0.692  -1.410   1.304  0.00  0.00     0.044 A 
ATOM     26  C32 ZIN AC000      -2.004  -1.005   1.142  0.00  0.00     0.103 A 
ATOM     27  C31 ZIN AC000      -2.661  -1.252  -0.049  0.00  0.00     0.036 A 
ATOM     28  C30 ZIN AC000      -2.005  -1.899  -1.079  0.00  0.00     0.003 A 
ATOM     29  C29 ZIN AC000      -0.692  -2.300  -0.918  0.00  0.00     0.008 A 
BRANCH  26  30
ATOM     30  N33 ZIN AC000      -2.706  -0.311   2.245  0.00  0.00    -0.116 N 
ATOM     31  O34 ZIN AC000      -3.882  -0.018   2.129  0.00  0.00    -0.532 OA
ATOM     32  O35 ZIN AC000      -2.107  -0.032   3.268  0.00  0.00    -0.532 OA
ENDBRANCH  26  30
ENDBRANCH   8  24
BRANCH   1  33
ATOM     33  C3  ZIN AC000       2.561  -0.303   0.004  0.00  0.00     0.291 C 
ATOM     34  O4  ZIN AC000       3.355  -0.107   0.905  0.00  0.00    -0.260 OA
BRANCH  33  35
ATOM     35  O2  ZIN AC000       1.955   0.740  -0.600  0.00  0.00    -0.323 OA
ATOM     36  C1  ZIN AC000       2.292   2.047  -0.130  0.00  0.00     0.213 C 
ENDBRANCH  33  35
ENDBRANCH   1  33
TORSDOF 11
