REMARK  2 active torsions:
REMARK  status: ('A' for Active; 'I' for Inactive)
REMARK    1  A    between atoms: O2_2  and  C3_3 
REMARK    2  A    between atoms: C14_12  and  O16_13 
ROOT
ATOM      1  C3  ZIN AC000       0.606  -0.608  -1.056  0.00  0.00     0.102 A 
ATOM      2  C4  ZIN AC000       1.185   0.134  -2.084  0.00  0.00     0.040 A 
ATOM      3  C5  ZIN AC000       1.799  -0.441  -3.185  0.00  0.00     0.011 A 
ATOM      4  C6  ZIN AC000       1.873  -1.818  -3.300  0.00  0.00    -0.046 A 
ATOM      5  C7  ZIN AC000       2.423  -2.550  -4.481  0.00  0.00     0.072 C 
ATOM      6  C8  ZIN AC000       2.412  -4.060  -4.314  0.00  0.00     0.197 C 
ATOM      7  C10 ZIN AC000       1.247  -4.603  -3.491  0.00  0.00     0.033 C 
ATOM      8  C12 ZIN AC000      -0.095  -4.201  -4.095  0.00  0.00     0.010 C 
ATOM      9  C13 ZIN AC000      -1.200  -4.779  -3.212  0.00  0.00     0.035 C 
ATOM     10  C14 ZIN AC000      -1.160  -4.196  -1.818  0.00  0.00     0.148 C 
ATOM     11  C17 ZIN AC000       0.194  -4.226  -1.137  0.00  0.00     0.171 C 
ATOM     12  O19 ZIN AC000       0.282  -3.006  -0.329  0.00  0.00    -0.339 OA
ATOM     13  C20 ZIN AC000       0.679  -2.001  -1.159  0.00  0.00     0.110 A 
ATOM     14  C21 ZIN AC000       1.341  -2.536  -2.256  0.00  0.00    -0.004 A 
ATOM     15  C22 ZIN AC000       1.361  -4.037  -2.087  0.00  0.00     0.026 C 
ATOM     16  C23 ZIN AC000       2.691  -4.451  -1.455  0.00  0.00     0.045 C 
ATOM     17  C24 ZIN AC000       3.824  -3.937  -2.352  0.00  0.00     0.236 C 
ATOM     18  N25 ZIN AC000       3.666  -4.512  -3.695  0.00  0.00    -0.070 N 
ATOM     19  H26 ZIN AC000       4.420  -4.194  -4.283  0.00  0.00     0.279 HD
ATOM     20  C27 ZIN AC000       3.713  -5.978  -3.600  0.00  0.00     0.270 C 
ENDROOT
BRANCH   1  21
ATOM     21  O2  ZIN AC000       0.002  -0.004   0.002  0.00  0.00    -0.353 OA
ATOM     22  C1  ZIN AC000      -0.017   1.425   0.010  0.00  0.00     0.210 C 
ENDBRANCH   1  21
BRANCH  10  23
ATOM     23  O16 ZIN AC000      -1.593  -2.836  -1.888  0.00  0.00    -0.393 OA
ATOM     24  H39 ZIN AC000      -2.491  -2.727  -2.229  0.00  0.00     0.210 HD
ENDBRANCH  10  23
TORSDOF 2
