REMARK  8 active torsions:
REMARK  status: ('A' for Active; 'I' for Inactive)
REMARK    1  A    between atoms: C2_2  and  N4_4 
REMARK    2  A    between atoms: N4_4  and  C6_6 
REMARK    3  A    between atoms: N4_4  and  C24_24 
REMARK    4  A    between atoms: C6_6  and  C7_7 
REMARK    5  A    between atoms: C7_7  and  C8_8 
REMARK    6  A    between atoms: C8_8  and  C9_9 
REMARK    7  A    between atoms: C8_8  and  C12_12 
REMARK    8  A    between atoms: C8_8  and  C18_18 
REMARK       I    between atoms: C9_9  and  N10_10 
ROOT
ATOM      1  C8  ZIN AC000      -2.898   1.851  -2.083  0.00  0.00     0.113 C 
ENDROOT
BRANCH   1   2
ATOM      2  C7  ZIN AC000      -2.035   1.729  -0.825  0.00  0.00     0.058 C 
BRANCH   2   3
ATOM      3  C6  ZIN AC000      -1.716   0.255  -0.566  0.00  0.00     0.237 C 
BRANCH   3   4
ATOM      4  N4  ZIN AC000      -1.040   0.121   0.731  0.00  0.00    -0.064 N 
ATOM      5  H5  ZIN AC000      -1.594   0.566   1.447  0.00  0.00     0.280 HD
BRANCH   4   6
ATOM      6  C2  ZIN AC000       0.280   0.764   0.664  0.00  0.00     0.180 C 
ATOM      7  C1  ZIN AC000       0.809   0.694  -0.770  0.00  0.00     0.039 C 
ATOM      8  C3  ZIN AC000       0.157   2.227   1.092  0.00  0.00     0.039 C 
ENDBRANCH   4   6
BRANCH   4   9
ATOM      9  C24 ZIN AC000      -0.875  -1.303   1.053  0.00  0.00     0.180 C 
ATOM     10  C25 ZIN AC000      -0.288  -1.443   2.459  0.00  0.00     0.039 C 
ATOM     11  C26 ZIN AC000      -2.237  -1.999   0.997  0.00  0.00     0.039 C 
ENDBRANCH   4   9
ENDBRANCH   3   4
ENDBRANCH   2   3
ENDBRANCH   1   2
BRANCH   1  12
ATOM     12  C9  ZIN AC000      -4.211   1.144  -1.861  0.00  0.00     0.234 C 
ATOM     13  N10 ZIN AC000      -5.029   1.539  -0.866  0.00  0.00    -0.369 N 
ATOM     14  H38 ZIN AC000      -4.773   2.277  -0.292  0.00  0.00     0.159 HD
ATOM     15  H39 ZIN AC000      -5.874   1.084  -0.723  0.00  0.00     0.159 HD
ATOM     16  O11 ZIN AC000      -4.531   0.221  -2.579  0.00  0.00    -0.272 OA
ENDBRANCH   1  12
BRANCH   1  17
ATOM     17  C12 ZIN AC000      -2.179   1.221  -3.248  0.00  0.00    -0.034 A 
ATOM     18  C17 ZIN AC000      -1.627   2.020  -4.233  0.00  0.00     0.009 A 
ATOM     19  C16 ZIN AC000      -0.964   1.442  -5.300  0.00  0.00     0.001 A 
ATOM     20  C15 ZIN AC000      -0.861   0.067  -5.386  0.00  0.00     0.000 A 
ATOM     21  C14 ZIN AC000      -1.417  -0.732  -4.405  0.00  0.00     0.001 A 
ATOM     22  C13 ZIN AC000      -2.076  -0.154  -3.336  0.00  0.00     0.009 A 
ENDBRANCH   1  17
BRANCH   1  23
ATOM     23  C18 ZIN AC000      -3.154   3.306  -2.377  0.00  0.00     0.056 A 
ATOM     24  N23 ZIN AC000      -2.753   4.225  -1.520  0.00  0.00    -0.264 NA
ATOM     25  C22 ZIN AC000      -2.951   5.510  -1.739  0.00  0.00     0.117 A 
ATOM     26  C21 ZIN AC000      -3.602   5.941  -2.879  0.00  0.00     0.019 A 
ATOM     27  C20 ZIN AC000      -4.043   5.004  -3.801  0.00  0.00     0.003 A 
ATOM     28  C19 ZIN AC000      -3.812   3.662  -3.539  0.00  0.00     0.029 A 
ENDBRANCH   1  23
TORSDOF 8
