REMARK  6 active torsions:
REMARK  status: ('A' for Active; 'I' for Inactive)
REMARK    1  A    between atoms: N1_1  and  C5_5 
REMARK    2  A    between atoms: C5_5  and  C6_6 
REMARK    3  A    between atoms: C6_6  and  O8_7 
REMARK    4  A    between atoms: C6_6  and  C9_8 
REMARK    5  A    between atoms: C12_11  and  O13_12 
REMARK    6  A    between atoms: C14_13  and  O15_14 
ROOT
ATOM      1  C9  <0> d          -2.840   1.435   2.467  0.00  0.00    -0.025 A 
ATOM      2  C10 <0> d          -3.444   2.678   2.474  0.00  0.00     0.012 A 
ATOM      3  C11 <0> d          -4.092   3.129   3.609  0.00  0.00     0.040 A 
ATOM      4  C12 <0> d          -4.137   2.334   4.743  0.00  0.00     0.098 A 
ATOM      5  C14 <0> d          -3.529   1.082   4.736  0.00  0.00     0.099 A 
ATOM      6  C16 <0> d          -2.886   0.634   3.593  0.00  0.00     0.049 A 
ENDROOT
BRANCH   1   7
ATOM      7  C6  <0> d          -2.135   0.949   1.227  0.00  0.00     0.176 C 
BRANCH   7   8
ATOM      8  C5  <0> d          -0.699   1.479   1.216  0.00  0.00     0.265 C 
BRANCH   8   9
ATOM      9  N1  <0> d          -0.012   1.005   0.008  0.00  0.00    -0.077 N 
ATOM     10  H2  <0> d           0.002  -0.004   0.002  0.00  0.00     0.274 HD
ATOM     11  H3  <0> d           0.935   1.354   0.000  0.00  0.00     0.274 HD
ATOM     12  H4  <0> d          -0.500   1.339  -0.810  0.00  0.00     0.274 HD
ENDBRANCH   8   9
ENDBRANCH   7   8
BRANCH   7  13
ATOM     13  O8  <0> d          -2.826   1.422   0.069  0.00  0.00    -0.389 OA
ATOM     14  H19 <0> d          -2.878   2.386   0.009  0.00  0.00     0.210 HD
ENDBRANCH   7  13
ENDBRANCH   1   7
BRANCH   5  15
ATOM     15  O15 <0> d          -3.571   0.297   5.846  0.00  0.00    -0.358 OA
ATOM     16  H23 <0> d          -4.336  -0.294   5.881  0.00  0.00     0.217 HD
ENDBRANCH   5  15
BRANCH   4  17
ATOM     17  O13 <0> d          -4.775   2.775   5.860  0.00  0.00    -0.358 OA
ATOM     18  H22 <0> d          -5.712   2.539   5.898  0.00  0.00     0.217 HD
ENDBRANCH   4  17
TORSDOF 6
