REMARK  2 active torsions:
REMARK  status: ('A' for Active; 'I' for Inactive)
REMARK    1  A    between atoms: C10_9  and  O11_10 
REMARK    2  A    between atoms: O11_10  and  S12_11 
ROOT
ATOM      1  C1  ZIN AC000      -0.019   1.526   0.010  0.00  0.00     0.024 C 
ATOM      2  C2  ZIN AC000       0.002  -0.004   0.002  0.00  0.00     0.021 C 
ATOM      3  C3  ZIN AC000      -1.407  -0.525   0.183  0.00  0.00     0.018 C 
ATOM      4  C4  ZIN AC000      -1.973   0.098   1.473  0.00  0.00     0.011 C 
ATOM      5  C5  ZIN AC000      -1.081  -0.228   2.663  0.00  0.00     0.024 C 
ATOM      6  C7  ZIN AC000      -1.594   0.393   3.930  0.00  0.00    -0.047 A 
ATOM      7  C8  ZIN AC000      -2.967   0.510   4.097  0.00  0.00     0.011 A 
ATOM      8  C9  ZIN AC000      -3.490   1.064   5.246  0.00  0.00     0.039 A 
ATOM      9  C10 ZIN AC000      -2.636   1.507   6.245  0.00  0.00     0.092 A 
ATOM     10  C16 ZIN AC000      -1.266   1.394   6.077  0.00  0.00     0.045 A 
ATOM     11  C17 ZIN AC000      -0.740   0.842   4.917  0.00  0.00    -0.049 A 
ATOM     12  C18 ZIN AC000       0.759   0.778   4.792  0.00  0.00     0.039 C 
ATOM     13  C19 ZIN AC000       1.184  -0.153   3.658  0.00  0.00     0.010 C 
ATOM     14  C20 ZIN AC000       0.365   0.223   2.422  0.00  0.00    -0.000 C 
ATOM     15  C22 ZIN AC000       0.862  -0.512   1.193  0.00  0.00     0.006 C 
ATOM     16  C24 ZIN AC000       2.281  -0.155   0.731  0.00  0.00     0.013 C 
ATOM     17  C25 ZIN AC000       2.243  -0.512  -0.780  0.00  0.00     0.079 C 
ATOM     18  C26 ZIN AC000       0.752  -0.483  -1.204  0.00  0.00     0.135 C 
ATOM     19  O27 ZIN AC000       0.297  -0.771  -2.286  0.00  0.00    -0.297 OA
ENDROOT
BRANCH   9  20
ATOM     20  O11 ZIN AC000      -3.141   2.049   7.384  0.00  0.00    -0.214 OA
BRANCH  20  21
ATOM     21  S12 ZIN AC000      -3.403   1.036   8.489  0.00  0.00     0.256 S 
ATOM     22  O13 ZIN AC000      -4.254   1.694   9.468  0.00  0.00    -0.572 OA
ATOM     23  O14 ZIN AC000      -4.064  -0.101   7.867  0.00  0.00    -0.572 OA
ATOM     24  O15 ZIN AC000      -2.107   0.677   9.045  0.00  0.00    -0.572 OA
ENDBRANCH  20  21
ENDBRANCH   9  20
TORSDOF 2
