REMARK  6 active torsions:
REMARK  status: ('A' for Active; 'I' for Inactive)
REMARK    1  A    between atoms: C8_8  and  O10_9 
REMARK    2  A    between atoms: O10_9  and  C11_10 
REMARK    3  A    between atoms: C11_10  and  C13_12 
REMARK    4  A    between atoms: C13_12  and  O14_13 
REMARK    5  A    between atoms: C13_12  and  C15_14 
REMARK    6  A    between atoms: C13_12  and  C21_20 
ROOT
ATOM      1  C13 <0> d          -4.194  -3.173   2.303  0.00  0.00     0.201 C 
ENDROOT
BRANCH   1   2
ATOM      2  C11 <0> d          -3.041  -2.977   1.353  0.00  0.00     0.303 C 
ATOM      3  O12 <0> d          -3.252  -2.745   0.186  0.00  0.00    -0.261 OA
BRANCH   2   4
ATOM      4  O10 <0> d          -1.779  -3.059   1.804  0.00  0.00    -0.311 OA
BRANCH   4   5
ATOM      5  C8  <0> d          -0.718  -2.859   0.833  0.00  0.00     0.162 C 
ATOM      6  C5  <0> d           0.517  -3.671   1.246  0.00  0.00     0.020 C 
ATOM      7  C4  <0> d           1.629  -3.414   0.221  0.00  0.00     0.035 C 
ATOM      8  C6  <0> d           0.993  -3.167   2.614  0.00  0.00     0.035 C 
ATOM      9  C3  <0> d           1.933  -1.915   0.189  0.00  0.00     0.237 C 
ATOM     10  N2  <0> d           1.071  -1.207   1.139  0.00  0.00    -0.068 N 
ATOM     11  C1  <0> d           1.387   0.226   1.074  0.00  0.00     0.272 C 
ATOM     12  C7  <0> d           1.317  -1.675   2.505  0.00  0.00     0.237 C 
ATOM     13  C27 <0> d          -0.336  -1.389   0.776  0.00  0.00     0.269 C 
ENDBRANCH   4   5
ENDBRANCH   2   4
ENDBRANCH   1   2
BRANCH   1  14
ATOM     14  O14 <0> d          -3.844  -4.154   3.281  0.00  0.00    -0.371 OA
ATOM     15  H40 <0> d          -3.630  -5.021   2.910  0.00  0.00     0.212 HD
ENDBRANCH   1  14
BRANCH   1  16
ATOM     16  C15 <0> d          -4.507  -1.868   2.990  0.00  0.00    -0.009 A 
ATOM     17  C20 <0> d          -4.835  -1.855   4.332  0.00  0.00     0.011 A 
ATOM     18  C19 <0> d          -5.118  -0.658   4.963  0.00  0.00     0.001 A 
ATOM     19  C18 <0> d          -5.081   0.525   4.249  0.00  0.00     0.000 A 
ATOM     20  C17 <0> d          -4.758   0.511   2.905  0.00  0.00     0.001 A 
ATOM     21  C16 <0> d          -4.471  -0.685   2.275  0.00  0.00     0.011 A 
ENDBRANCH   1  16
BRANCH   1  22
ATOM     22  C21 <0> d          -5.404  -3.639   1.535  0.00  0.00    -0.009 A 
ATOM     23  C26 <0> d          -6.000  -2.802   0.610  0.00  0.00     0.011 A 
ATOM     24  C25 <0> d          -7.107  -3.231  -0.098  0.00  0.00     0.001 A 
ATOM     25  C24 <0> d          -7.623  -4.493   0.125  0.00  0.00     0.000 A 
ATOM     26  C23 <0> d          -7.030  -5.329   1.054  0.00  0.00     0.001 A 
ATOM     27  C22 <0> d          -5.921  -4.901   1.758  0.00  0.00     0.011 A 
ENDBRANCH   1  22
TORSDOF 6
