REMARK  6 active torsions:
REMARK  status: ('A' for Active; 'I' for Inactive)
REMARK    1  A    between atoms: C3_3  and  C4_4 
REMARK    2  A    between atoms: C12_12  and  C13_13 
REMARK    3  A    between atoms: C13_13  and  O15_15 
REMARK    4  A    between atoms: O15_15  and  C16_16 
REMARK    5  A    between atoms: C16_16  and  C17_17 
REMARK    6  A    between atoms: C17_17  and  N18_18 
ROOT
ATOM      1  C1  <0> d           0.001   1.482   0.346  0.00  0.00     0.055 C 
ATOM      2  C2  <0> d           0.011  -0.014   0.163  0.00  0.00     0.024 A 
ATOM      3  C3  <0> d          -1.158  -0.706   0.106  0.00  0.00     0.096 A 
ATOM      4  O10 <0> d          -1.202  -2.037  -0.056  0.00  0.00    -0.307 OA
ATOM      5  C11 <0> d          -0.089  -2.786  -0.173  0.00  0.00     0.106 A 
ATOM      6  C12 <0> d          -0.171  -4.177  -0.342  0.00  0.00     0.074 A 
ATOM      7  C25 <0> d           1.000  -4.926  -0.461  0.00  0.00     0.020 A 
ATOM      8  C26 <0> d           2.236  -4.309  -0.414  0.00  0.00     0.002 A 
ATOM      9  C27 <0> d           2.330  -2.942  -0.249  0.00  0.00     0.018 A 
ATOM     10  C28 <0> d           1.173  -2.175  -0.128  0.00  0.00     0.050 A 
ATOM     11  C29 <0> d           1.238  -0.709   0.044  0.00  0.00     0.193 A 
ATOM     12  O30 <0> d           2.306  -0.122   0.085  0.00  0.00    -0.287 OA
ENDROOT
BRANCH   6  13
ATOM     13  C13 <0> d          -1.486  -4.841  -0.393  0.00  0.00     0.296 C 
ATOM     14  O14 <0> d          -2.503  -4.185  -0.289  0.00  0.00    -0.259 OA
BRANCH  13  15
ATOM     15  O15 <0> d          -1.560  -6.177  -0.555  0.00  0.00    -0.316 OA
BRANCH  15  16
ATOM     16  C16 <0> d          -2.887  -6.764  -0.596  0.00  0.00     0.206 C 
BRANCH  16  17
ATOM     17  C17 <0> d          -2.770  -8.278  -0.784  0.00  0.00     0.261 C 
BRANCH  17  18
ATOM     18  N18 <0> d          -2.120  -8.869   0.393  0.00  0.00    -0.069 N 
ATOM     19  H19 <0> d          -1.234  -8.413   0.552  0.00  0.00     0.280 HD
ATOM     20  C24 <0> d          -2.981  -8.685   1.568  0.00  0.00     0.235 C 
ATOM     21  C23 <0> d          -2.272  -9.225   2.813  0.00  0.00     0.028 C 
ATOM     22  C22 <0> d          -1.983 -10.716   2.620  0.00  0.00     0.003 C 
ATOM     23  C21 <0> d          -1.148 -10.904   1.350  0.00  0.00     0.028 C 
ATOM     24  C20 <0> d          -1.897 -10.301   0.160  0.00  0.00     0.235 C 
ENDBRANCH  17  18
ENDBRANCH  16  17
ENDBRANCH  15  16
ENDBRANCH  13  15
ENDBRANCH   6  13
BRANCH   3  25
ATOM     25  C4  <0> d          -2.429   0.037   0.226  0.00  0.00    -0.002 A 
ATOM     26  C9  <0> d          -3.382  -0.351   1.170  0.00  0.00     0.014 A 
ATOM     27  C8  <0> d          -4.565   0.350   1.280  0.00  0.00     0.001 A 
ATOM     28  C7  <0> d          -4.812   1.430   0.451  0.00  0.00     0.000 A 
ATOM     29  C6  <0> d          -3.874   1.817  -0.491  0.00  0.00     0.001 A 
ATOM     30  C5  <0> d          -2.685   1.128  -0.608  0.00  0.00     0.014 A 
ENDBRANCH   3  25
TORSDOF 6
