REMARK  11 active torsions:
REMARK  status: ('A' for Active; 'I' for Inactive)
REMARK    1  A    between atoms: N1_1  and  C5_5 
REMARK    2  A    between atoms: C5_5  and  C7_6 
REMARK    3  A    between atoms: C5_5  and  C23_21 
REMARK    4  A    between atoms: C7_6  and  C8_7 
REMARK    5  A    between atoms: C8_7  and  C9_8 
REMARK       I    between atoms: C9_8  and  N11_10 
REMARK    6  A    between atoms: N11_10  and  C12_11 
REMARK    7  A    between atoms: C12_11  and  C14_12 
REMARK    8  A    between atoms: C12_11  and  C16_14 
REMARK    9  A    between atoms: C14_12  and  S15_13 
REMARK       I    between atoms: C16_14  and  N18_16 
REMARK   10  A    between atoms: N18_16  and  C19_17 
REMARK   11  A    between atoms: C19_17  and  C20_18 
ROOT
ATOM      1  C9  ZIN AC000       0.691   5.044   1.348  0.00  0.00     0.218 C 
ATOM      2  O10 ZIN AC000      -0.365   5.637   1.270  0.00  0.00    -0.274 OA
ATOM      3  N11 ZIN AC000       1.845   5.733   1.442  0.00  0.00    -0.347 N 
ATOM      4  H30 ZIN AC000       2.689   5.259   1.505  0.00  0.00     0.163 HD
ENDROOT
BRANCH   3   5
ATOM      5  C12 ZIN AC000       1.825   7.198   1.450  0.00  0.00     0.185 C 
BRANCH   5   6
ATOM      6  C14 ZIN AC000       1.581   7.697   2.876  0.00  0.00     0.105 C 
BRANCH   6   7
ATOM      7  S15 ZIN AC000      -0.012   7.067   3.473  0.00  0.00    -0.180 SA
ATOM      8  H33 ZIN AC000      -0.092   7.576   4.715  0.00  0.00     0.101 HD
ENDBRANCH   6   7
ENDBRANCH   5   6
BRANCH   5   9
ATOM      9  C16 ZIN AC000       3.149   7.721   0.954  0.00  0.00     0.241 C 
ATOM     10  O17 ZIN AC000       4.023   6.947   0.627  0.00  0.00    -0.271 OA
ATOM     11  N18 ZIN AC000       3.361   9.050   0.875  0.00  0.00    -0.349 N 
ATOM     12  H34 ZIN AC000       2.663   9.669   1.137  0.00  0.00     0.163 HD
BRANCH  11  13
ATOM     13  C19 ZIN AC000       4.648   9.558   0.393  0.00  0.00     0.235 C 
BRANCH  13  14
ATOM     14  C20 ZIN AC000       4.628  11.065   0.402  0.00  0.00     0.191 C 
ATOM     15  O21 ZIN AC000       3.631  11.659   0.775  0.00  0.00    -0.647 OA
ATOM     16  O22 ZIN AC000       5.608  11.690   0.034  0.00  0.00    -0.647 OA
ENDBRANCH  13  14
ENDBRANCH  11  13
ENDBRANCH   5   9
ENDBRANCH   3   5
BRANCH   1  17
ATOM     17  C8  ZIN AC000       0.711   3.537   1.339  0.00  0.00     0.105 C 
BRANCH  17  18
ATOM     18  C7  ZIN AC000      -0.720   3.008   1.225  0.00  0.00     0.053 C 
BRANCH  18  19
ATOM     19  C5  ZIN AC000      -0.699   1.479   1.216  0.00  0.00     0.283 C 
BRANCH  19  20
ATOM     20  N1  ZIN AC000      -0.012   1.005   0.008  0.00  0.00    -0.065 N 
ATOM     21  H2  ZIN AC000       0.002  -0.004   0.002  0.00  0.00     0.275 HD
ATOM     22  H3  ZIN AC000       0.935   1.354   0.000  0.00  0.00     0.275 HD
ATOM     23  H4  ZIN AC000      -0.500   1.339  -0.810  0.00  0.00     0.275 HD
ENDBRANCH  19  20
BRANCH  19  24
ATOM     24  C23 ZIN AC000      -2.113   0.957   1.227  0.00  0.00     0.204 C 
ATOM     25  O24 ZIN AC000      -2.800   1.079   2.226  0.00  0.00    -0.646 OA
ATOM     26  O25 ZIN AC000      -2.569   0.412   0.236  0.00  0.00    -0.646 OA
ENDBRANCH  19  24
ENDBRANCH  18  19
ENDBRANCH  17  18
ENDBRANCH   1  17
TORSDOF 11
