REMARK  0 active torsions:
REMARK  status: ('A' for Active; 'I' for Inactive)
ROOT
ATOM      1  C1  ZIN AC000      -0.018   1.465   0.010  0.00  0.00     0.269 C 
ATOM      2  N2  ZIN AC000       0.002  -0.004   0.002  0.00  0.00    -0.074 N 
ATOM      3  H3  ZIN AC000      -0.943  -0.357  -0.004  0.00  0.00     0.279 HD
ATOM      4  C4  ZIN AC000       0.724  -0.488  -1.202  0.00  0.00     0.244 C 
ATOM      5  C5  ZIN AC000       1.921  -1.287  -0.683  0.00  0.00     0.057 C 
ATOM      6  C7  ZIN AC000       2.390  -2.399  -1.533  0.00  0.00    -0.018 A 
ATOM      7  C8  ZIN AC000       1.723  -2.801  -2.672  0.00  0.00     0.010 A 
ATOM      8  C9  ZIN AC000       2.195  -3.873  -3.407  0.00  0.00     0.001 A 
ATOM      9  C10 ZIN AC000       3.333  -4.547  -3.003  0.00  0.00     0.003 A 
ATOM     10  C11 ZIN AC000       4.013  -4.140  -1.870  0.00  0.00     0.038 A 
ATOM     11  C12 ZIN AC000       3.550  -3.057  -1.143  0.00  0.00     0.082 A 
ATOM     12  O13 ZIN AC000       4.228  -2.568  -0.087  0.00  0.00    -0.310 OA
ATOM     13  C14 ZIN AC000       3.809  -2.613   1.192  0.00  0.00     0.083 A 
ATOM     14  C15 ZIN AC000       4.738  -3.059   2.134  0.00  0.00     0.039 A 
ATOM     15  C16 ZIN AC000       4.406  -3.166   3.466  0.00  0.00     0.026 A 
ATOM     16  C17 ZIN AC000       3.130  -2.825   3.877  0.00  0.00     0.034 A 
ATOM     17 Cl18 ZIN AC000       2.688  -2.964   5.550  0.00  0.00    -0.084 Cl
ATOM     18  C19 ZIN AC000       2.211  -2.376   2.955  0.00  0.00     0.034 A 
ATOM     19  C20 ZIN AC000       2.536  -2.252   1.604  0.00  0.00    -0.016 A 
ATOM     20  C21 ZIN AC000       1.487  -1.724   0.701  0.00  0.00     0.057 C 
ATOM     21  C23 ZIN AC000       0.716  -0.502   1.210  0.00  0.00     0.244 C 
ENDROOT
TORSDOF 0
