REMARK  5 active torsions:
REMARK  status: ('A' for Active; 'I' for Inactive)
REMARK    1  A    between atoms: O2_2  and  C3_3 
REMARK    2  A    between atoms: C4_4  and  O5_5 
REMARK    3  A    between atoms: C9_9  and  N10_10 
REMARK    4  A    between atoms: C12_12  and  N13_13 
REMARK       I    between atoms: N16_16  and  C17_17 
REMARK    5  A    between atoms: C17_17  and  C19_19 
ROOT
ATOM      1  C3  ZIN AC000       0.626  -0.618   1.041  0.00  0.00     0.103 A 
ATOM      2  C4  ZIN AC000       0.682  -2.018   1.086  0.00  0.00     0.102 A 
ATOM      3  C7  ZIN AC000       1.305  -2.658   2.120  0.00  0.00     0.057 A 
ATOM      4  C8  ZIN AC000       1.892  -1.909   3.147  0.00  0.00     0.039 A 
ATOM      5  C9  ZIN AC000       2.549  -2.526   4.240  0.00  0.00     0.137 A 
ATOM      6  N11 ZIN AC000       3.081  -1.750   5.173  0.00  0.00    -0.202 NA
ATOM      7  C12 ZIN AC000       3.008  -0.424   5.099  0.00  0.00     0.184 A 
ATOM      8  N32 ZIN AC000       2.409   0.202   4.105  0.00  0.00    -0.330 N 
ATOM      9  H33 ZIN AC000       2.381   1.172   4.093  0.00  0.00     0.168 HD
ATOM     10  C34 ZIN AC000       1.838  -0.494   3.108  0.00  0.00     0.051 A 
ATOM     11  C35 ZIN AC000       1.200   0.142   2.037  0.00  0.00     0.070 A 
ENDROOT
BRANCH   7  12
ATOM     12  N13 ZIN AC000       3.584   0.330   6.106  0.00  0.00    -0.250 NA
ATOM     13  C31 ZIN AC000       4.202  -0.534   7.122  0.00  0.00     0.118 C 
ATOM     14  C30 ZIN AC000       4.667   0.325   8.303  0.00  0.00     0.140 C 
ATOM     15  N16 ZIN AC000       5.532   1.397   7.789  0.00  0.00    -0.348 N 
ATOM     16  C15 ZIN AC000       5.035   2.219   6.675  0.00  0.00     0.140 C 
ATOM     17  C17 ZIN AC000       6.748   1.621   8.324  0.00  0.00     0.251 C 
ATOM     18  C14 ZIN AC000       4.555   1.286   5.558  0.00  0.00     0.118 C 
ATOM     19  O18 ZIN AC000       7.449   2.510   7.888  0.00  0.00    -0.270 OA
BRANCH  17  20
ATOM     20  C19 ZIN AC000       7.238   0.767   9.465  0.00  0.00     0.245 C 
ATOM     21  O29 ZIN AC000       8.586   1.124   9.792  0.00  0.00    -0.331 OA
ATOM     22  C28 ZIN AC000       9.070   0.664  10.978  0.00  0.00     0.103 A 
ATOM     23  C23 ZIN AC000       8.210   0.202  11.967  0.00  0.00     0.102 A 
ATOM     24  C27 ZIN AC000      10.439   0.660  11.198  0.00  0.00     0.040 A 
ATOM     25  O22 ZIN AC000       6.863   0.192  11.770  0.00  0.00    -0.345 OA
ATOM     26  C24 ZIN AC000       8.724  -0.254  13.171  0.00  0.00     0.039 A 
ATOM     27  C21 ZIN AC000       6.363   1.006  10.703  0.00  0.00     0.218 C 
ATOM     28  C25 ZIN AC000      10.090  -0.253  13.385  0.00  0.00     0.003 A 
ATOM     29  C26 ZIN AC000      10.946   0.203  12.400  0.00  0.00     0.003 A 
ENDBRANCH  17  20
ENDBRANCH   7  12
BRANCH   5  30
ATOM     30  N10 ZIN AC000       2.633  -3.900   4.330  0.00  0.00    -0.383 N 
ATOM     31  H43 ZIN AC000       2.239  -4.456   3.639  0.00  0.00     0.157 HD
ATOM     32  H44 ZIN AC000       3.086  -4.309   5.083  0.00  0.00     0.157 HD
ENDBRANCH   5  30
BRANCH   1  33
ATOM     33  O2  ZIN AC000       0.002  -0.004   0.002  0.00  0.00    -0.353 OA
ATOM     34  C1  ZIN AC000      -0.017   1.425   0.010  0.00  0.00     0.210 C 
ENDBRANCH   1  33
BRANCH   2  35
ATOM     35  O5  ZIN AC000       0.112  -2.746   0.089  0.00  0.00    -0.353 OA
ATOM     36  C6  ZIN AC000       0.204  -4.169   0.192  0.00  0.00     0.210 C 
ENDBRANCH   2  35
TORSDOF 5
