REMARK  10 active torsions:
REMARK  status: ('A' for Active; 'I' for Inactive)
REMARK    1  A    between atoms: O2_2  and  C3_3 
REMARK    2  A    between atoms: C6_6  and  C7_7 
REMARK    3  A    between atoms: C7_7  and  C8_8 
REMARK    4  A    between atoms: C8_8  and  N11_10 
REMARK    5  A    between atoms: N11_10  and  C14_13 
REMARK    6  A    between atoms: C14_13  and  C15_14 
REMARK    7  A    between atoms: C15_14  and  O17_15 
REMARK    8  A    between atoms: C15_14  and  C18_16 
REMARK    9  A    between atoms: C23_21  and  N24_22 
REMARK   10  A    between atoms: N24_22  and  C25_23 
ROOT
ATOM      1  C14 ZIN AC000      -4.896  -3.893  -3.482  0.00  0.00     0.269 C 
ENDROOT
BRANCH   1   2
ATOM      2  N11 ZIN AC000      -4.523  -3.753  -2.068  0.00  0.00    -0.068 N 
ATOM      3  H12 ZIN AC000      -3.580  -3.399  -2.003  0.00  0.00     0.277 HD
ATOM      4  H13 ZIN AC000      -4.576  -4.653  -1.616  0.00  0.00     0.277 HD
BRANCH   2   5
ATOM      5  C8  ZIN AC000      -5.444  -2.818  -1.409  0.00  0.00     0.186 C 
ATOM      6  C10 ZIN AC000      -6.854  -3.413  -1.399  0.00  0.00     0.040 C 
BRANCH   5   7
ATOM      7  C7  ZIN AC000      -4.982  -2.576   0.029  0.00  0.00     0.071 C 
BRANCH   7   8
ATOM      8  C6  ZIN AC000      -3.647  -1.878   0.017  0.00  0.00    -0.056 A 
ATOM      9  C5  ZIN AC000      -3.590  -0.496   0.011  0.00  0.00     0.010 A 
ATOM     10  C4  ZIN AC000      -2.367   0.146   0.000  0.00  0.00     0.037 A 
ATOM     11  C3  ZIN AC000      -1.195  -0.597  -0.004  0.00  0.00     0.068 A 
ATOM     12  C29 ZIN AC000      -1.254  -1.982  -0.004  0.00  0.00     0.037 A 
ATOM     13  C28 ZIN AC000      -2.480  -2.620   0.012  0.00  0.00     0.010 A 
BRANCH  11  14
ATOM     14  O2  ZIN AC000       0.010   0.033  -0.015  0.00  0.00    -0.356 OA
ATOM     15  C1  ZIN AC000      -0.005   1.462  -0.015  0.00  0.00     0.210 C 
ENDBRANCH  11  14
ENDBRANCH   7   8
ENDBRANCH   5   7
ENDBRANCH   2   5
ENDBRANCH   1   2
BRANCH   1  16
ATOM     16  C15 ZIN AC000      -3.936  -4.867  -4.169  0.00  0.00     0.176 C 
BRANCH  16  17
ATOM     17  O17 ZIN AC000      -4.096  -6.170  -3.605  0.00  0.00    -0.389 OA
ATOM     18  H42 ZIN AC000      -4.987  -6.533  -3.700  0.00  0.00     0.210 HD
ENDBRANCH  16  17
BRANCH  16  19
ATOM     19  C18 ZIN AC000      -4.241  -4.917  -5.644  0.00  0.00    -0.026 A 
ATOM     20  C27 ZIN AC000      -3.466  -4.196  -6.533  0.00  0.00     0.042 A 
ATOM     21  C23 ZIN AC000      -3.743  -4.246  -7.891  0.00  0.00     0.071 A 
ATOM     22  C21 ZIN AC000      -4.809  -5.014  -8.354  0.00  0.00     0.134 A 
ATOM     23  C20 ZIN AC000      -5.584  -5.729  -7.456  0.00  0.00     0.043 A 
ATOM     24  O22 ZIN AC000      -5.088  -5.062  -9.684  0.00  0.00    -0.190 OA
ATOM     25  C19 ZIN AC000      -5.299  -5.680  -6.104  0.00  0.00     0.013 A 
BRANCH  21  26
ATOM     26  N24 ZIN AC000      -2.955  -3.520  -8.795  0.00  0.00    -0.332 N 
ATOM     27  H45 ZIN AC000      -3.323  -3.252  -9.652  0.00  0.00     0.168 HD
BRANCH  26  28
ATOM     28  C25 ZIN AC000      -1.688  -3.194  -8.474  0.00  0.00     0.353 C 
ATOM     29  O26 ZIN AC000      -1.196  -3.612  -7.447  0.00  0.00    -0.283 OA
ENDBRANCH  26  28
ENDBRANCH  21  26
ENDBRANCH  16  19
ENDBRANCH   1  16
TORSDOF 10
