REMARK  19 active torsions:
REMARK  status: ('A' for Active; 'I' for Inactive)
REMARK    1  A    between atoms: O1_1  and  C2_2 
REMARK    2  A    between atoms: C2_2  and  C3_3 
REMARK    3  A    between atoms: C5_5  and  C6_6 
REMARK    4  A    between atoms: C6_6  and  O8_7 
REMARK    5  A    between atoms: C6_6  and  C9_8 
REMARK    6  A    between atoms: C9_8  and  N10_9 
REMARK    7  A    between atoms: N10_9  and  C13_12 
REMARK    8  A    between atoms: C13_12  and  C14_13 
REMARK    9  A    between atoms: C14_13  and  C15_14 
REMARK   10  A    between atoms: C15_14  and  C16_15 
REMARK   11  A    between atoms: C16_15  and  C17_16 
REMARK   12  A    between atoms: C17_16  and  C18_17 
REMARK   13  A    between atoms: C18_17  and  O19_18 
REMARK   14  A    between atoms: O19_18  and  C20_19 
REMARK   15  A    between atoms: C20_19  and  C21_20 
REMARK   16  A    between atoms: C21_20  and  O22_21 
REMARK   17  A    between atoms: O22_21  and  C23_22 
REMARK   18  A    between atoms: C23_22  and  C24_23 
REMARK   19  A    between atoms: C34_33  and  O35_34 
ROOT
ATOM      1  C13 RES d   1      -6.959   2.235   2.876  0.00  0.00     0.232 C 
ENDROOT
BRANCH   1   2
ATOM      2  N10 RES d   1      -6.517   2.015   1.493  0.00  0.00    -0.072 N 
ATOM      3  H11 RES d   1      -6.227   2.892   1.089  0.00  0.00     0.277 HD
ATOM      4  H12 RES d   1      -7.279   1.632   0.953  0.00  0.00     0.277 HD
BRANCH   2   5
ATOM      5  C9  RES d   1      -5.389   1.074   1.483  0.00  0.00     0.268 C 
BRANCH   5   6
ATOM      6  C6  RES d   1      -4.929   0.844   0.042  0.00  0.00     0.176 C 
BRANCH   6   7
ATOM      7  C5  RES d   1      -3.772  -0.121   0.032  0.00  0.00    -0.027 A 
ATOM      8  C4  RES d   1      -2.474   0.357   0.022  0.00  0.00     0.022 A 
ATOM      9  C3  RES d   1      -1.412  -0.526   0.013  0.00  0.00    -0.001 A 
ATOM     10  C34 RES d   1      -1.647  -1.893   0.008  0.00  0.00     0.074 A 
ATOM     11  C33 RES d   1      -2.950  -2.370   0.023  0.00  0.00     0.038 A 
ATOM     12  C32 RES d   1      -4.009  -1.483   0.033  0.00  0.00     0.012 A 
BRANCH   9  13
ATOM     13  C2  RES d   1       0.002  -0.004   0.002  0.00  0.00     0.205 C 
BRANCH  13  14
ATOM     14  O1  RES d   1      -0.017   1.425   0.010  0.00  0.00    -0.396 OA
ATOM     15  H36 RES d   1       0.861   1.830   0.004  0.00  0.00     0.209 HD
ENDBRANCH  13  14
ENDBRANCH   9  13
BRANCH  10  16
ATOM     16  O35 RES d   1      -0.604  -2.764  -0.002  0.00  0.00    -0.360 OA
ATOM     17  H66 RES d   1      -0.312  -3.018  -0.888  0.00  0.00     0.217 HD
ENDBRANCH  10  16
ENDBRANCH   6   7
BRANCH   6  18
ATOM     18  O8  RES d   1      -6.008   0.302  -0.722  0.00  0.00    -0.389 OA
ATOM     19  H40 RES d   1      -6.339  -0.543  -0.390  0.00  0.00     0.210 HD
ENDBRANCH   6  18
ENDBRANCH   5   6
ENDBRANCH   2   5
ENDBRANCH   1   2
BRANCH   1  20
ATOM     20  C14 RES d   1      -8.134   3.215   2.887  0.00  0.00     0.027 C 
BRANCH  20  21
ATOM     21  C15 RES d   1      -8.595   3.444   4.327  0.00  0.00     0.002 C 
BRANCH  21  22
ATOM     22  C16 RES d   1      -9.770   4.424   4.338  0.00  0.00     0.002 C 
BRANCH  22  23
ATOM     23  C17 RES d   1     -10.230   4.654   5.779  0.00  0.00     0.026 C 
BRANCH  23  24
ATOM     24  C18 RES d   1     -11.405   5.633   5.789  0.00  0.00     0.167 C 
BRANCH  24  25
ATOM     25  O19 RES d   1     -11.835   5.848   7.135  0.00  0.00    -0.389 OA
BRANCH  25  26
ATOM     26  C20 RES d   1     -12.934   6.753   7.256  0.00  0.00     0.193 C 
BRANCH  26  27
ATOM     27  C21 RES d   1     -13.307   6.905   8.732  0.00  0.00     0.194 C 
BRANCH  27  28
ATOM     28  O22 RES d   1     -12.228   7.525   9.435  0.00  0.00    -0.384 OA
BRANCH  28  29
ATOM     29  C23 RES d   1     -12.476   7.715  10.829  0.00  0.00     0.209 C 
BRANCH  29  30
ATOM     30  C24 RES d   1     -11.279   8.372  11.467  0.00  0.00     0.009 A 
ATOM     31  C30 RES d   1     -11.198   9.751  11.530  0.00  0.00     0.044 A 
ATOM     32  C29 RES d   1     -10.101  10.354  12.121  0.00  0.00     0.024 A 
ATOM     33 Cl31 RES d   1     -12.479  10.726  10.880  0.00  0.00    -0.084 Cl
ATOM     34  C28 RES d   1      -9.081   9.577  12.638  0.00  0.00     0.003 A 
ATOM     35  C27 RES d   1      -9.159   8.199  12.571  0.00  0.00     0.024 A 
ATOM     36  C25 RES d   1     -10.258   7.595  11.985  0.00  0.00     0.044 A 
ATOM     37 Cl26 RES d   1     -10.355   5.864  11.900  0.00  0.00    -0.084 Cl
ENDBRANCH  29  30
ENDBRANCH  28  29
ENDBRANCH  27  28
ENDBRANCH  26  27
ENDBRANCH  25  26
ENDBRANCH  24  25
ENDBRANCH  23  24
ENDBRANCH  22  23
ENDBRANCH  21  22
ENDBRANCH  20  21
ENDBRANCH   1  20
TORSDOF 19
