REMARK  5 active torsions:
REMARK  status: ('A' for Active; 'I' for Inactive)
REMARK    1  A    between atoms: C2_2  and  O3_3 
REMARK    2  A    between atoms: C2_2  and  C13_13 
REMARK    3  A    between atoms: O3_3  and  O4_4 
REMARK    4  A    between atoms: O4_4  and  C5_5 
REMARK    5  A    between atoms: C5_5  and  C7_7 
ROOT
ATOM      1  O3  ZIN AC000       4.699   1.100  -0.035  0.00  0.00    -0.144 OA
ENDROOT
BRANCH   1   2
ATOM      2  C2  ZIN AC000       5.850   1.792  -0.042  0.00  0.00     0.323 C 
ATOM      3  O1  ZIN AC000       5.829   3.007  -0.036  0.00  0.00    -0.257 OA
BRANCH   2   4
ATOM      4  C13 ZIN AC000       7.143   1.075  -0.058  0.00  0.00     0.042 A 
ATOM      5  C18 ZIN AC000       8.341   1.792  -0.065  0.00  0.00     0.017 A 
ATOM      6  C17 ZIN AC000       9.544   1.117  -0.079  0.00  0.00     0.001 A 
ATOM      7  C16 ZIN AC000       9.565  -0.267  -0.085  0.00  0.00     0.000 A 
ATOM      8  C15 ZIN AC000       8.380  -0.983  -0.077  0.00  0.00     0.001 A 
ATOM      9  C14 ZIN AC000       7.171  -0.320  -0.059  0.00  0.00     0.017 A 
ENDBRANCH   2   4
ENDBRANCH   1   2
BRANCH   1  10
ATOM     10  O4  ZIN AC000       3.630   1.768  -0.022  0.00  0.00    -0.144 OA
BRANCH  10  11
ATOM     11  C5  ZIN AC000       2.478   1.075  -0.015  0.00  0.00     0.323 C 
ATOM     12  O6  ZIN AC000       2.499  -0.140  -0.021  0.00  0.00    -0.257 OA
BRANCH  11  13
ATOM     13  C7  ZIN AC000       1.186   1.792   0.000  0.00  0.00     0.042 A 
ATOM     14  C12 ZIN AC000       1.158   3.188   0.008  0.00  0.00     0.017 A 
ATOM     15  C11 ZIN AC000      -0.052   3.850   0.022  0.00  0.00     0.001 A 
ATOM     16  C10 ZIN AC000      -1.236   3.134   0.030  0.00  0.00     0.000 A 
ATOM     17  C9  ZIN AC000      -1.216   1.751   0.017  0.00  0.00     0.001 A 
ATOM     18  C8  ZIN AC000      -0.013   1.076   0.008  0.00  0.00     0.017 A 
ENDBRANCH  11  13
ENDBRANCH  10  11
ENDBRANCH   1  10
TORSDOF 5
