REMARK  8 active torsions:
REMARK  status: ('A' for Active; 'I' for Inactive)
REMARK    1  A    between atoms: C2_2  and  C4_4 
REMARK    2  A    between atoms: C4_4  and  O5_5 
REMARK    3  A    between atoms: O5_5  and  C6_6 
REMARK    4  A    between atoms: C6_6  and  C7_7 
REMARK    5  A    between atoms: C7_7  and  N8_8 
REMARK    6  A    between atoms: N11_11  and  C13_13 
REMARK    7  A    between atoms: C13_13  and  C15_14 
REMARK    8  A    between atoms: C13_13  and  C21_20 
ROOT
ATOM      1  N8  <0> d          -4.788  -0.310   1.248  0.00  0.00     0.093 N 
ATOM      2  C9  <0> d          -3.424  -0.665   1.667  0.00  0.00     0.300 C 
ATOM      3  C10 <0> d          -3.486  -1.463   2.971  0.00  0.00     0.266 C 
ATOM      4  N11 <0> d          -4.285  -2.679   2.764  0.00  0.00    -0.055 N 
ATOM      5  H12 <0> d          -3.864  -3.237   2.036  0.00  0.00     0.281 HD
ATOM      6  C28 <0> d          -5.650  -2.308   2.369  0.00  0.00     0.266 C 
ATOM      7  C29 <0> d          -5.606  -1.517   1.060  0.00  0.00     0.300 C 
ENDROOT
BRANCH   4   8
ATOM      8  C13 <0> d          -4.329  -3.454   4.011  0.00  0.00     0.254 C 
BRANCH   8   9
ATOM      9  C15 <0> d          -2.929  -3.835   4.415  0.00  0.00    -0.023 A 
ATOM     10  C20 <0> d          -2.557  -3.791   5.746  0.00  0.00     0.009 A 
ATOM     11  C19 <0> d          -1.274  -4.145   6.118  0.00  0.00     0.001 A 
ATOM     12  C18 <0> d          -0.359  -4.535   5.157  0.00  0.00     0.000 A 
ATOM     13  C17 <0> d          -0.729  -4.574   3.826  0.00  0.00     0.001 A 
ATOM     14  C16 <0> d          -2.014  -4.224   3.455  0.00  0.00     0.009 A 
ENDBRANCH   8   9
BRANCH   8  15
ATOM     15  C21 <0> d          -5.148  -4.701   3.798  0.00  0.00    -0.023 A 
ATOM     16  C27 <0> d          -6.011  -5.138   4.786  0.00  0.00     0.011 A 
ATOM     17  C26 <0> d          -6.766  -6.278   4.589  0.00  0.00     0.024 A 
ATOM     18  C24 <0> d          -6.650  -6.989   3.408  0.00  0.00     0.034 A 
ATOM     19  C23 <0> d          -5.782  -6.555   2.422  0.00  0.00     0.024 A 
ATOM     20 Cl25 <0> d          -7.593  -8.426   3.163  0.00  0.00    -0.084 Cl
ATOM     21  C22 <0> d          -5.032  -5.411   2.618  0.00  0.00     0.011 A 
ENDBRANCH   8  15
ENDBRANCH   4   8
BRANCH   1  22
ATOM     22  C7  <0> d          -4.767   0.507   0.027  0.00  0.00     0.298 C 
BRANCH  22  23
ATOM     23  C6  <0> d          -3.830  -0.133  -0.999  0.00  0.00     0.198 C 
BRANCH  23  24
ATOM     24  O5  <0> d          -4.361  -1.394  -1.408  0.00  0.00    -0.379 OA
BRANCH  24  25
ATOM     25  C4  <0> d          -3.557  -2.079  -2.371  0.00  0.00     0.280 C 
BRANCH  25  26
ATOM     26  C2  <0> d          -4.209  -3.390  -2.729  0.00  0.00     0.197 C 
ATOM     27  O1  <0> d          -5.263  -3.709  -2.207  0.00  0.00    -0.646 OA
ATOM     28  O3  <0> d          -3.683  -4.129  -3.543  0.00  0.00    -0.646 OA
ENDBRANCH  25  26
ENDBRANCH  24  25
ENDBRANCH  23  24
ENDBRANCH  22  23
ENDBRANCH   1  22
TORSDOF 8
