REMARK  1 active torsions:
REMARK  status: ('A' for Active; 'I' for Inactive)
REMARK    1  A    between atoms: O1_1  and  C2_2 
ROOT
ATOM      1  C2  ZIN AC000       0.002  -0.004   0.002  0.00  0.00     0.065 A 
ATOM      2  C3  ZIN AC000       0.006  -0.692  -1.203  0.00  0.00     0.036 A 
ATOM      3  C4  ZIN AC000       0.025  -2.074  -1.208  0.00  0.00     0.003 A 
ATOM      4  C5  ZIN AC000       0.040  -2.770  -0.013  0.00  0.00     0.000 A 
ATOM      5  C6  ZIN AC000       0.036  -2.087   1.189  0.00  0.00     0.003 A 
ATOM      6  C7  ZIN AC000       0.023  -0.705   1.199  0.00  0.00     0.036 A 
ENDROOT
BRANCH   1   7
ATOM      7  O1  ZIN AC000      -0.016   1.355   0.009  0.00  0.00    -0.361 OA
ATOM      8  H8  ZIN AC000       0.862   1.760   0.003  0.00  0.00     0.217 HD
ENDBRANCH   1   7
TORSDOF 1
