REMARK  5 active torsions:
REMARK  status: ('A' for Active; 'I' for Inactive)
REMARK    1  A    between atoms: C2_2  and  O4_4 
REMARK    2  A    between atoms: O4_4  and  C5_5 
REMARK    3  A    between atoms: C5_5  and  C6_6 
REMARK    4  A    between atoms: C6_6  and  C8_8 
REMARK    5  A    between atoms: C35_31  and  O37_32 
ROOT
ATOM      1  C8  RES d   1       0.528  -4.498  -2.760  0.00  0.00     0.160 C 
ATOM      2  O9  RES d   1       1.127  -5.293  -1.719  0.00  0.00    -0.334 OA
ATOM      3  C10 RES d   1       0.009  -5.814  -0.969  0.00  0.00     0.159 C 
ATOM      4  C11 RES d   1       0.429  -7.055  -0.178  0.00  0.00     0.078 C 
ATOM      5  C12 RES d   1      -0.545  -4.745  -0.025  0.00  0.00     0.078 C 
ATOM      6  O13 RES d   1      -0.970  -6.162  -1.970  0.00  0.00    -0.347 OA
ATOM      7  C14 RES d   1      -0.893  -5.107  -2.950  0.00  0.00     0.168 C 
ATOM      8  C16 RES d   1      -0.912  -5.761  -4.358  0.00  0.00     0.041 C 
ATOM      9  C17 RES d   1       0.569  -6.045  -4.630  0.00  0.00     0.007 C 
ATOM     10  C19 RES d   1       0.953  -6.203  -6.090  0.00  0.00     0.037 C 
ATOM     11  C21 RES d   1       0.236  -7.417  -6.685  0.00  0.00     0.050 C 
ATOM     12  C22 RES d   1       0.595  -7.552  -8.169  0.00  0.00     0.201 C 
ATOM     13  F24 RES d   1       0.035  -8.725  -8.686  0.00  0.00    -0.245 F 
ATOM     14  C25 RES d   1       2.107  -7.611  -8.284  0.00  0.00    -0.027 A 
ATOM     15  C26 RES d   1       2.661  -8.600  -8.971  0.00  0.00     0.061 A 
ATOM     16  C27 RES d   1       4.124  -8.702  -9.089  0.00  0.00     0.172 A 
ATOM     17  O28 RES d   1       4.635  -9.585  -9.751  0.00  0.00    -0.289 OA
ATOM     18  C29 RES d   1       4.955  -7.709  -8.387  0.00  0.00     0.052 A 
ATOM     19  C30 RES d   1       4.381  -6.726  -7.712  0.00  0.00    -0.006 A 
ATOM     20  C31 RES d   1       2.906  -6.535  -7.611  0.00  0.00     0.039 A 
ATOM     21  C32 RES d   1       2.560  -5.204  -8.283  0.00  0.00     0.028 C 
ATOM     22  C33 RES d   1       2.476  -6.399  -6.148  0.00  0.00     0.147 C 
ATOM     23  F34 RES d   1       2.798  -7.575  -5.462  0.00  0.00    -0.238 F 
ATOM     24  C35 RES d   1       3.233  -5.241  -5.504  0.00  0.00     0.160 C 
ATOM     25  C38 RES d   1       2.752  -4.978  -4.068  0.00  0.00     0.048 C 
ATOM     26  C39 RES d   1       1.238  -4.716  -4.090  0.00  0.00     0.004 C 
ATOM     27  C40 RES d   1       0.923  -3.583  -5.068  0.00  0.00     0.019 C 
ENDROOT
BRANCH   1  28
ATOM     28  C6  RES d   1       0.470  -3.039  -2.388  0.00  0.00     0.188 C 
ATOM     29  O7  RES d   1      -0.469  -2.364  -2.735  0.00  0.00    -0.292 OA
BRANCH  28  30
ATOM     30  C5  RES d   1       1.586  -2.421  -1.585  0.00  0.00     0.260 C 
BRANCH  30  31
ATOM     31  O4  RES d   1       1.359  -0.993  -1.460  0.00  0.00    -0.314 OA
BRANCH  31  32
ATOM     32  C2  RES d   1       2.269  -0.289  -0.768  0.00  0.00     0.255 C 
ATOM     33  C1  RES d   1       2.100   1.198  -0.597  0.00  0.00     0.126 C 
ATOM     34  O3  RES d   1       3.223  -0.849  -0.282  0.00  0.00    -0.266 OA
ENDBRANCH  31  32
ENDBRANCH  30  31
ENDBRANCH  28  30
ENDBRANCH   1  28
BRANCH  24  35
ATOM     35  O37 RES d   1       3.034  -4.061  -6.285  0.00  0.00    -0.392 OA
ATOM     36  H62 RES d   1       3.486  -3.280  -5.939  0.00  0.00     0.210 HD
ENDBRANCH  24  35
TORSDOF 5
