REMARK  3 active torsions:
REMARK  status: ('A' for Active; 'I' for Inactive)
REMARK    1  A    between atoms: C2_2  and  O4_4 
REMARK    2  A    between atoms: O4_4  and  C5_5 
REMARK    3  A    between atoms: C5_5  and  C6_6 
ROOT
ATOM      1  C5  <0> d          -0.980  -2.114  -0.099  0.00  0.00     0.138 C 
ATOM      2  C9  <0> d           0.005  -2.348  -1.271  0.00  0.00     0.048 C 
ATOM      3  C10 <0> d          -0.774  -3.161  -2.341  0.00  0.00     0.009 C 
ATOM      4  C11 <0> d          -2.236  -2.820  -2.035  0.00  0.00     0.002 C 
ATOM      5  C13 <0> d          -3.266  -3.815  -2.539  0.00  0.00    -0.004 C 
ATOM      6  C15 <0> d          -3.240  -3.854  -4.070  0.00  0.00     0.014 C 
ATOM      7  C16 <0> d          -4.232  -4.912  -4.561  0.00  0.00     0.012 C 
ATOM      8  C18 <0> d          -4.301  -4.879  -6.089  0.00  0.00     0.015 C 
ATOM      9  C19 <0> d          -5.600  -4.605  -3.979  0.00  0.00    -0.064 C 
ATOM     10  C20 <0> d          -6.640  -4.601  -4.813  0.00  0.00     0.054 C 
ATOM     11  C21 <0> d          -7.988  -4.327  -4.304  0.00  0.00     0.149 C 
ATOM     12  O22 <0> d          -8.879  -3.942  -5.032  0.00  0.00    -0.293 OA
ATOM     13  C23 <0> d          -8.209  -4.550  -2.821  0.00  0.00     0.084 C 
ATOM     14  C24 <0> d          -7.081  -3.835  -2.078  0.00  0.00     0.022 C 
ATOM     15  C25 <0> d          -5.715  -4.338  -2.510  0.00  0.00    -0.016 C 
ATOM     16  C26 <0> d          -5.436  -5.647  -1.768  0.00  0.00     0.020 C 
ATOM     17  C27 <0> d          -4.644  -3.338  -2.061  0.00  0.00     0.002 C 
ATOM     18  C29 <0> d          -4.710  -3.185  -0.544  0.00  0.00     0.007 C 
ATOM     19  C30 <0> d          -3.581  -2.287  -0.013  0.00  0.00     0.013 C 
ATOM     20  C31 <0> d          -2.251  -2.865  -0.483  0.00  0.00    -0.001 C 
ATOM     21  C32 <0> d          -2.145  -4.332  -0.061  0.00  0.00     0.019 C 
ENDROOT
BRANCH   1  22
ATOM     22  O4  <0> d          -1.259  -0.697   0.050  0.00  0.00    -0.302 OA
BRANCH  22  23
ATOM     23  C2  <0> d          -0.211   0.109   0.287  0.00  0.00     0.256 C 
ATOM     24  C1  <0> d          -0.405   1.603   0.336  0.00  0.00     0.126 C 
ATOM     25  O3  <0> d           0.887  -0.364   0.461  0.00  0.00    -0.266 OA
ENDBRANCH  22  23
ENDBRANCH   1  22
BRANCH   1  26
ATOM     26  C6  <0> d          -0.412  -2.670   1.182  0.00  0.00     0.158 C 
ATOM     27  C7  <0> d          -0.861  -2.115   2.509  0.00  0.00     0.094 C 
ATOM     28  O8  <0> d           0.403  -3.560   1.144  0.00  0.00    -0.295 OA
ENDBRANCH   1  26
TORSDOF 3
