REMARK  0 active torsions:
REMARK  status: ('A' for Active; 'I' for Inactive)
ROOT
ATOM      1  C1  ZIN AC000      -0.018   1.461   0.010  0.00  0.00     0.165 C 
ATOM      2  N2  ZIN AC000       0.002  -0.004   0.002  0.00  0.00    -0.266 N 
ATOM      3  C3  ZIN AC000       0.008  -0.753  -1.107  0.00  0.00     0.370 A 
ATOM      4  O4  ZIN AC000      -0.003  -0.294  -2.232  0.00  0.00    -0.238 OA
ATOM      5  O5  ZIN AC000       0.027  -2.068  -0.837  0.00  0.00    -0.283 OA
ATOM      6  C6  ZIN AC000       0.035  -2.203   0.616  0.00  0.00     0.146 A 
ATOM      7  C7  ZIN AC000      -1.210  -2.952   1.094  0.00  0.00     0.057 C 
ATOM      8  C8  ZIN AC000       1.304  -2.920   1.082  0.00  0.00     0.057 C 
ATOM      9  C9  ZIN AC000       0.023  -0.770   1.111  0.00  0.00     0.262 A 
ATOM     10  O10 ZIN AC000       0.025  -0.393   2.263  0.00  0.00    -0.269 OA
ENDROOT
TORSDOF 0
