REMARK  9 active torsions:
REMARK  status: ('A' for Active; 'I' for Inactive)
REMARK    1  A    between atoms: O2_2  and  N3_3 
REMARK    2  A    between atoms: C4_4  and  C5_5 
REMARK    3  A    between atoms: C4_4  and  C33_31 
REMARK       I    between atoms: C5_5  and  N7_7 
REMARK    4  A    between atoms: N7_7  and  C8_8 
REMARK    5  A    between atoms: C13_12  and  C14_13 
REMARK    6  A    between atoms: C17_16  and  C18_17 
REMARK    7  A    between atoms: C18_17  and  S19_18 
REMARK    8  A    between atoms: S19_18  and  C20_19 
REMARK    9  A    between atoms: C36_34  and  N37_35 
ROOT
ATOM      1  C8  ZIN AC000       2.101  -3.184   0.584  0.00  0.00     0.211 C 
ATOM      2  C10 ZIN AC000       2.728  -3.122   1.967  0.00  0.00     0.251 C 
ATOM      3  O11 ZIN AC000       2.460  -3.615   3.042  0.00  0.00    -0.271 OA
ATOM      4  N12 ZIN AC000       3.697  -2.302   1.525  0.00  0.00    -0.293 N 
ATOM      5  C13 ZIN AC000       4.636  -1.401   2.058  0.00  0.00     0.119 C 
ATOM      6  C17 ZIN AC000       5.025  -0.353   1.345  0.00  0.00    -0.027 C 
ATOM      7  C29 ZIN AC000       4.631   0.020  -0.046  0.00  0.00     0.113 C 
ATOM      8  S30 ZIN AC000       3.085  -0.786  -0.563  0.00  0.00    -0.136 SA
ATOM      9  C31 ZIN AC000       3.351  -2.474   0.075  0.00  0.00     0.187 C 
ENDROOT
BRANCH   1  10
ATOM     10  N7  ZIN AC000       0.879  -2.387   0.456  0.00  0.00    -0.339 N 
ATOM     11  C5  ZIN AC000      -0.322  -2.998   0.407  0.00  0.00     0.275 C 
ATOM     12  O6  ZIN AC000      -0.386  -4.211   0.378  0.00  0.00    -0.266 OA
ATOM     13  H42 ZIN AC000       0.933  -1.420   0.406  0.00  0.00     0.163 HD
BRANCH  11  14
ATOM     14  C4  ZIN AC000      -1.564  -2.190   0.388  0.00  0.00     0.180 C 
ATOM     15  N3  ZIN AC000      -2.725  -2.778   0.450  0.00  0.00    -0.126 NA
BRANCH  15  16
ATOM     16  O2  ZIN AC000      -2.804  -4.191   0.424  0.00  0.00    -0.261 OA
ATOM     17  C1  ZIN AC000      -4.138  -4.700   0.499  0.00  0.00     0.240 C 
ENDBRANCH  15  16
BRANCH  14  18
ATOM     18  C33 ZIN AC000      -1.486  -0.716   0.299  0.00  0.00     0.102 A 
ATOM     19  N38 ZIN AC000      -0.334  -0.071   0.110  0.00  0.00    -0.222 NA
ATOM     20  C36 ZIN AC000      -0.390   1.222   0.044  0.00  0.00     0.164 A 
ATOM     21  S35 ZIN AC000      -2.057   1.750   0.249  0.00  0.00    -0.062 SA
ATOM     22  C34 ZIN AC000      -2.572   0.073   0.409  0.00  0.00     0.087 A 
BRANCH  20  23
ATOM     23  N37 ZIN AC000       0.696   2.060  -0.152  0.00  0.00    -0.378 N 
ATOM     24  H51 ZIN AC000       0.567   3.021  -0.185  0.00  0.00     0.158 HD
ATOM     25  H52 ZIN AC000       1.585   1.686  -0.256  0.00  0.00     0.158 HD
ENDBRANCH  20  23
ENDBRANCH  14  18
ENDBRANCH  11  14
ENDBRANCH   1  10
BRANCH   5  26
ATOM     26  C14 ZIN AC000       5.186  -1.622   3.405  0.00  0.00     0.227 C 
ATOM     27  O15 ZIN AC000       4.579  -1.215   4.387  0.00  0.00    -0.643 OA
ATOM     28  O16 ZIN AC000       6.249  -2.211   3.543  0.00  0.00    -0.643 OA
ENDBRANCH   5  26
BRANCH   6  29
ATOM     29  C18 ZIN AC000       5.989   0.583   2.027  0.00  0.00     0.120 C 
BRANCH  29  30
ATOM     30  S19 ZIN AC000       7.658   0.305   1.384  0.00  0.00    -0.086 SA
BRANCH  30  31
ATOM     31  C20 ZIN AC000       8.527   1.462   2.300  0.00  0.00     0.188 A 
ATOM     32  N27 ZIN AC000       9.867   1.579   2.110  0.00  0.00    -0.247 N 
ATOM     33  N26 ZIN AC000      10.616   2.517   2.834  0.00  0.00    -0.123 NA
ATOM     34  C28 ZIN AC000      10.536   0.722   1.127  0.00  0.00     0.182 C 
ATOM     35  C24 ZIN AC000       9.983   3.300   3.737  0.00  0.00     0.353 A 
ATOM     36  C22 ZIN AC000       8.506   3.124   3.910  0.00  0.00     0.341 A 
ATOM     37  O25 ZIN AC000      10.594   4.121   4.389  0.00  0.00    -0.258 OA
ATOM     38  N21 ZIN AC000       7.871   2.210   3.174  0.00  0.00    -0.179 NA
ATOM     39  O23 ZIN AC000       7.893   3.805   4.710  0.00  0.00    -0.260 OA
ENDBRANCH  30  31
ENDBRANCH  29  30
ENDBRANCH   6  29
TORSDOF 9
