REMARK  3 active torsions:
REMARK  status: ('A' for Active; 'I' for Inactive)
REMARK    1  A    between atoms: C2_2  and  C3_3 
REMARK    2  A    between atoms: C3_3  and  C5_5 
REMARK    3  A    between atoms: C27_23  and  O29_24 
ROOT
ATOM      1  C5  <0> d          -2.248  -1.656  -1.047  0.00  0.00     0.028 C 
ATOM      2  C6  <0> d          -1.850  -2.289  -2.382  0.00  0.00     0.025 C 
ATOM      3  C7  <0> d          -1.413  -2.264   0.108  0.00  0.00    -0.002 C 
ATOM      4  C9  <0> d          -0.381  -3.245  -0.451  0.00  0.00     0.011 C 
ATOM      5  C10 <0> d          -2.417  -3.011   1.028  0.00  0.00     0.011 C 
ATOM      6  C11 <0> d          -3.585  -3.316   0.085  0.00  0.00    -0.000 C 
ATOM      7  C13 <0> d          -4.924  -3.571   0.753  0.00  0.00    -0.002 C 
ATOM      8  C15 <0> d          -4.835  -4.816   1.637  0.00  0.00     0.010 C 
ATOM      9  C16 <0> d          -6.178  -5.048   2.338  0.00  0.00     0.036 C 
ATOM     10  C17 <0> d          -7.258  -5.124   1.276  0.00  0.00    -0.064 A 
ATOM     11  C18 <0> d          -8.086  -6.158   1.274  0.00  0.00     0.058 A 
ATOM     12  C19 <0> d          -9.133  -6.277   0.247  0.00  0.00     0.171 A 
ATOM     13  O20 <0> d          -9.921  -7.204   0.266  0.00  0.00    -0.289 OA
ATOM     14  C21 <0> d          -9.206  -5.248  -0.804  0.00  0.00     0.052 A 
ATOM     15  C22 <0> d          -8.372  -4.220  -0.779  0.00  0.00    -0.009 A 
ATOM     16  C23 <0> d          -7.335  -4.012   0.271  0.00  0.00     0.004 A 
ATOM     17  C24 <0> d          -7.684  -2.726   1.024  0.00  0.00     0.025 C 
ATOM     18  C25 <0> d          -5.962  -3.778  -0.362  0.00  0.00     0.035 C 
ATOM     19  C27 <0> d          -6.034  -2.571  -1.292  0.00  0.00     0.124 C 
ATOM     20  C30 <0> d          -4.653  -2.210  -1.862  0.00  0.00     0.042 C 
ATOM     21  C31 <0> d          -3.699  -1.991  -0.715  0.00  0.00    -0.023 C 
ATOM     22  C32 <0> d          -4.271  -0.944   0.242  0.00  0.00     0.017 C 
ENDROOT
BRANCH   1  23
ATOM     23  C3  <0> d          -2.056  -0.162  -1.100  0.00  0.00     0.136 C 
ATOM     24  O4  <0> d          -3.013   0.572  -1.051  0.00  0.00    -0.297 OA
BRANCH  23  25
ATOM     25  C2  <0> d          -0.668   0.415  -1.216  0.00  0.00     0.074 C 
ATOM     26  C1  <0> d          -0.753   1.943  -1.250  0.00  0.00     0.013 C 
ENDBRANCH  23  25
ENDBRANCH   1  23
BRANCH  19  27
ATOM     27  O29 <0> d          -6.543  -1.451  -0.564  0.00  0.00    -0.395 OA
ATOM     28  H56 <0> d          -6.619  -0.642  -1.089  0.00  0.00     0.210 HD
ENDBRANCH  19  27
TORSDOF 3
