REMARK  0 active torsions:
REMARK  status: ('A' for Active; 'I' for Inactive)
ROOT
ATOM      1  C1  ZIN AC000      -0.018   1.465   0.010  0.00  0.00     0.269 C 
ATOM      2  N2  ZIN AC000       0.002  -0.004   0.002  0.00  0.00    -0.072 N 
ATOM      3  H3  ZIN AC000      -0.943  -0.357   0.009  0.00  0.00     0.279 HD
ATOM      4  C4  ZIN AC000       0.703  -0.485  -1.200  0.00  0.00     0.249 C 
ATOM      5  C5  ZIN AC000       0.614  -2.008  -1.224  0.00  0.00     0.125 C 
ATOM      6  N6  ZIN AC000       1.237  -2.587  -0.018  0.00  0.00    -0.255 NA
ATOM      7  C7  ZIN AC000       1.091  -3.965  -0.105  0.00  0.00     0.112 A 
ATOM      8  N8  ZIN AC000       0.178  -4.449  -0.947  0.00  0.00    -0.248 NA
ATOM      9  C9  ZIN AC000      -0.039  -5.744  -1.061  0.00  0.00     0.118 A 
ATOM     10  C10 ZIN AC000       0.673  -6.656  -0.308  0.00  0.00     0.020 A 
ATOM     11  C11 ZIN AC000       1.644  -6.191   0.572  0.00  0.00     0.012 A 
ATOM     12  C12 ZIN AC000       1.853  -4.826   0.651  0.00  0.00    -0.013 A 
ATOM     13  C13 ZIN AC000       2.934  -4.276   1.527  0.00  0.00     0.081 C 
ATOM     14  C14 ZIN AC000       2.397  -3.402   2.621  0.00  0.00    -0.046 A 
ATOM     15  C15 ZIN AC000       2.936  -3.652   3.886  0.00  0.00     0.008 A 
ATOM     16  C16 ZIN AC000       2.554  -2.920   4.986  0.00  0.00     0.001 A 
ATOM     17  C17 ZIN AC000       1.617  -1.915   4.835  0.00  0.00     0.001 A 
ATOM     18  C18 ZIN AC000       1.082  -1.672   3.593  0.00  0.00     0.009 A 
ATOM     19  C19 ZIN AC000       1.461  -2.420   2.471  0.00  0.00    -0.032 A 
ATOM     20  C20 ZIN AC000       0.736  -2.031   1.210  0.00  0.00     0.124 C 
ATOM     21  C22 ZIN AC000       0.723  -0.495   1.179  0.00  0.00     0.259 C 
ENDROOT
TORSDOF 0
