REMARK  1 active torsions:
REMARK  status: ('A' for Active; 'I' for Inactive)
REMARK    1  A    between atoms: N1_1  and  C5_5 
ROOT
ATOM      1  C5  <0> d          -0.699   1.479   1.216  0.00  0.00     0.124 C 
ATOM      2  C6  <0> d          -2.135   0.949   1.227  0.00  0.00     0.043 C 
ATOM      3  C7  <0> d          -2.851   1.442   2.486  0.00  0.00    -0.012 C 
ATOM      4  C8  <0> d          -2.872   2.972   2.494  0.00  0.00     0.009 C 
ATOM      5  C9  <0> d          -1.436   3.502   2.483  0.00  0.00    -0.012 C 
ATOM      6  C10 <0> d          -0.696   2.995   3.723  0.00  0.00     0.009 C 
ATOM      7  C11 <0> d          -0.675   1.465   3.715  0.00  0.00    -0.012 C 
ATOM      8  C12 <0> d          -2.111   0.936   3.725  0.00  0.00     0.009 C 
ATOM      9  C13 <0> d           0.041   0.972   2.456  0.00  0.00     0.043 C 
ATOM     10  C14 <0> d          -0.720   3.008   1.225  0.00  0.00     0.043 C 
ENDROOT
BRANCH   1  11
ATOM     11  N1  <0> d          -0.012   1.005   0.008  0.00  0.00    -0.070 N 
ATOM     12  H2  <0> d           0.002  -0.004   0.002  0.00  0.00     0.275 HD
ATOM     13  H3  <0> d           0.935   1.354   0.000  0.00  0.00     0.275 HD
ATOM     14  H4  <0> d          -0.500   1.339  -0.810  0.00  0.00     0.275 HD
ENDBRANCH   1  11
TORSDOF 1
