REMARK  4 active torsions:
REMARK  status: ('A' for Active; 'I' for Inactive)
REMARK    1  A    between atoms: O2_2  and  C3_3 
REMARK    2  A    between atoms: C9_9  and  C10_10 
REMARK    3  A    between atoms: C10_10  and  C11_11 
REMARK       I    between atoms: N16_16  and  C17_17 
REMARK    4  A    between atoms: C17_17  and  C19_19 
ROOT
ATOM      1  C3  <0> d          -1.199  -0.643   0.015  0.00  0.00     0.069 A 
ATOM      2  C4  <0> d          -2.374   0.103   0.025  0.00  0.00     0.039 A 
ATOM      3  C5  <0> d          -3.602  -0.523   0.032  0.00  0.00     0.034 A 
ATOM      4  C6  <0> d          -3.674  -1.910   0.029  0.00  0.00     0.053 A 
ATOM      5  C7  <0> d          -2.489  -2.667   0.019  0.00  0.00     0.003 A 
ATOM      6  C8  <0> d          -1.251  -2.023   0.006  0.00  0.00     0.051 A 
ATOM      7  C9  <0> d          -2.903  -4.074   0.018  0.00  0.00    -0.013 A 
ATOM      8  C14 <0> d          -4.244  -4.092   0.028  0.00  0.00     0.024 A 
ATOM      9  C15 <0> d          -5.092  -5.337   0.032  0.00  0.00     0.069 C 
ATOM     10  N16 <0> d          -4.729  -2.807   0.035  0.00  0.00    -0.281 N 
ATOM     11  C17 <0> d          -6.034  -2.470   0.045  0.00  0.00     0.263 C 
ATOM     12  O18 <0> d          -6.607  -2.228  -0.998  0.00  0.00    -0.267 OA
ENDROOT
BRANCH  11  13
ATOM     13  C19 <0> d          -6.766  -2.394   1.325  0.00  0.00     0.033 A 
ATOM     14  C25 <0> d          -8.141  -2.150   1.333  0.00  0.00     0.018 A 
ATOM     15  C24 <0> d          -8.820  -2.085   2.531  0.00  0.00     0.025 A 
ATOM     16  C22 <0> d          -8.140  -2.252   3.726  0.00  0.00     0.034 A 
ATOM     17  C21 <0> d          -6.775  -2.490   3.725  0.00  0.00     0.025 A 
ATOM     18 Cl23 <0> d          -9.001  -2.162   5.231  0.00  0.00    -0.084 Cl
ATOM     19  C20 <0> d          -6.086  -2.562   2.534  0.00  0.00     0.018 A 
ENDBRANCH  11  13
BRANCH   7  20
ATOM     20  C10 <0> d          -1.993  -5.275   0.009  0.00  0.00     0.154 C 
BRANCH  20  21
ATOM     21  C11 <0> d          -1.679  -5.678   1.427  0.00  0.00     0.177 C 
ATOM     22  O12 <0> d          -2.151  -5.049   2.359  0.00  0.00    -0.648 OA
ATOM     23  O13 <0> d          -0.953  -6.634   1.643  0.00  0.00    -0.648 OA
ENDBRANCH  20  21
ENDBRANCH   7  20
BRANCH   1  24
ATOM     24  O2  <0> d           0.005  -0.010   0.008  0.00  0.00    -0.356 OA
ATOM     25  C1  <0> d          -0.013   1.419   0.019  0.00  0.00     0.210 C 
ENDBRANCH   1  24
TORSDOF 4
