REMARK  7 active torsions:
REMARK  status: ('A' for Active; 'I' for Inactive)
REMARK    1  A    between atoms: S2_2  and  O5_5 
REMARK    2  A    between atoms: O5_5  and  C6_6 
REMARK    3  A    between atoms: C6_6  and  C7_7 
REMARK    4  A    between atoms: C7_7  and  C8_8 
REMARK    5  A    between atoms: C8_8  and  C9_9 
REMARK    6  A    between atoms: C9_9  and  O10_10 
REMARK    7  A    between atoms: O10_10  and  S11_11 
ROOT
ATOM      1  C7  <0> d           2.772  -0.561  -2.565  0.00  0.00     0.030 C 
ENDROOT
BRANCH   1   2
ATOM      2  C6  <0> d           2.146  -0.166  -1.226  0.00  0.00     0.190 C 
BRANCH   2   3
ATOM      3  O5  <0> d           0.732  -0.367  -1.283  0.00  0.00    -0.276 OA
BRANCH   3   4
ATOM      4  S2  <0> d           0.002  -0.004   0.002  0.00  0.00     0.261 S 
ATOM      5  C1  <0> d          -0.022   1.810   0.012  0.00  0.00     0.194 C 
ATOM      6  O3  <0> d           0.845  -0.497   1.035  0.00  0.00    -0.199 OA
ATOM      7  O4  <0> d          -1.309  -0.519  -0.182  0.00  0.00    -0.199 OA
ENDBRANCH   3   4
ENDBRANCH   2   3
ENDBRANCH   1   2
BRANCH   1   8
ATOM      8  C8  <0> d           4.285  -0.346  -2.503  0.00  0.00     0.030 C 
BRANCH   8   9
ATOM      9  C9  <0> d           4.912  -0.741  -3.842  0.00  0.00     0.190 C 
BRANCH   9  10
ATOM     10  O10 <0> d           6.325  -0.540  -3.784  0.00  0.00    -0.276 OA
BRANCH  10  11
ATOM     11  S11 <0> d           7.055  -0.903  -5.070  0.00  0.00     0.261 S 
ATOM     12  C12 <0> d           6.674   0.459  -6.206  0.00  0.00     0.194 C 
ATOM     13  O13 <0> d           8.430  -0.882  -4.710  0.00  0.00    -0.199 OA
ATOM     14  O14 <0> d           6.429  -2.103  -5.501  0.00  0.00    -0.199 OA
ENDBRANCH  10  11
ENDBRANCH   9  10
ENDBRANCH   8   9
ENDBRANCH   1   8
TORSDOF 7
