REMARK  7 active torsions:
REMARK  status: ('A' for Active; 'I' for Inactive)
REMARK    1  A    between atoms: C23_19  and  O25_20 
REMARK    2  A    between atoms: C29_24  and  O30_25 
REMARK    3  A    between atoms: C29_24  and  C38_33 
REMARK    4  A    between atoms: O30_25  and  C31_26 
REMARK    5  A    between atoms: C31_26  and  C33_28 
REMARK    6  A    between atoms: C38_33  and  S40_35 
REMARK    7  A    between atoms: S40_35  and  C41_36 
ROOT
ATOM      1  C1  ZIN AC000       0.819   1.962   1.754  0.00  0.00     0.014 C 
ATOM      2  C2  ZIN AC000       0.710   0.496   1.330  0.00  0.00     0.027 C 
ATOM      3  C4  ZIN AC000      -0.782   0.093   1.181  0.00  0.00     0.013 C 
ATOM      4  C5  ZIN AC000      -1.106  -0.534   2.542  0.00  0.00     0.005 C 
ATOM      5  C7  ZIN AC000      -2.294  -1.478   2.568  0.00  0.00     0.037 C 
ATOM      6  C9  ZIN AC000      -3.571  -0.715   2.210  0.00  0.00     0.050 C 
ATOM      7  C10 ZIN AC000      -4.762  -1.679   2.199  0.00  0.00     0.201 C 
ATOM      8  F12 ZIN AC000      -5.946  -0.965   1.988  0.00  0.00    -0.245 F 
ATOM      9  C13 ZIN AC000      -4.816  -2.378   3.545  0.00  0.00    -0.027 A 
ATOM     10  C14 ZIN AC000      -5.957  -2.382   4.221  0.00  0.00     0.061 A 
ATOM     11  C15 ZIN AC000      -6.043  -3.030   5.538  0.00  0.00     0.172 A 
ATOM     12  O16 ZIN AC000      -7.098  -3.070   6.145  0.00  0.00    -0.289 OA
ATOM     13  C17 ZIN AC000      -4.825  -3.631   6.107  0.00  0.00     0.052 A 
ATOM     14  C18 ZIN AC000      -3.699  -3.622   5.411  0.00  0.00    -0.006 A 
ATOM     15  C19 ZIN AC000      -3.566  -3.037   4.047  0.00  0.00     0.039 A 
ATOM     16  C20 ZIN AC000      -3.217  -4.172   3.083  0.00  0.00     0.028 C 
ATOM     17  C21 ZIN AC000      -2.395  -2.053   3.990  0.00  0.00     0.147 C 
ATOM     18  F22 ZIN AC000      -2.636  -0.998   4.877  0.00  0.00    -0.238 F 
ATOM     19  C23 ZIN AC000      -1.116  -2.764   4.422  0.00  0.00     0.160 C 
ATOM     20  C26 ZIN AC000       0.117  -1.861   4.262  0.00  0.00     0.048 C 
ATOM     21  C27 ZIN AC000       0.173  -1.371   2.814  0.00  0.00     0.003 C 
ATOM     22  C28 ZIN AC000       0.140  -2.567   1.861  0.00  0.00     0.019 C 
ATOM     23  C29 ZIN AC000       1.304  -0.420   2.429  0.00  0.00     0.152 C 
ENDROOT
BRANCH  23  24
ATOM     24  O30 ZIN AC000       1.738   0.340   3.587  0.00  0.00    -0.294 OA
BRANCH  24  25
ATOM     25  C31 ZIN AC000       2.804   1.150   3.424  0.00  0.00     0.318 C 
ATOM     26  O32 ZIN AC000       3.417   1.143   2.373  0.00  0.00    -0.257 OA
BRANCH  25  27
ATOM     27  C33 ZIN AC000       3.224   2.038   4.511  0.00  0.00     0.149 A 
ATOM     28  O37 ZIN AC000       2.635   2.144   5.720  0.00  0.00    -0.317 OA
ATOM     29  C36 ZIN AC000       3.290   3.051   6.455  0.00  0.00     0.143 A 
ATOM     30  C35 ZIN AC000       4.310   3.550   5.723  0.00  0.00     0.027 A 
ATOM     31  C34 ZIN AC000       4.277   2.908   4.476  0.00  0.00     0.045 A 
ENDBRANCH  25  27
ENDBRANCH  24  25
ENDBRANCH  23  24
BRANCH  23  32
ATOM     32  C38 ZIN AC000       2.460  -1.193   1.848  0.00  0.00     0.224 C 
ATOM     33  O39 ZIN AC000       2.572  -1.302   0.644  0.00  0.00    -0.282 OA
BRANCH  32  34
ATOM     34  S40 ZIN AC000       3.614  -1.916   2.884  0.00  0.00    -0.058 SA
BRANCH  34  35
ATOM     35  C41 ZIN AC000       4.711  -2.669   1.657  0.00  0.00     0.304 C 
ATOM     36  F42 ZIN AC000       5.493  -1.675   1.058  0.00  0.00    -0.244 F 
ENDBRANCH  34  35
ENDBRANCH  32  34
ENDBRANCH  23  32
BRANCH  19  37
ATOM     37  O25 ZIN AC000      -0.941  -3.935   3.622  0.00  0.00    -0.392 OA
ATOM     38  H56 ZIN AC000      -0.147  -4.443   3.837  0.00  0.00     0.210 HD
ENDBRANCH  19  37
TORSDOF 7
