REMARK  5 active torsions:
REMARK  status: ('A' for Active; 'I' for Inactive)
REMARK    1  A    between atoms: C4_4  and  C6_5 
REMARK       I    between atoms: C6_5  and  N8_7 
REMARK    2  A    between atoms: N8_7  and  C9_8 
REMARK    3  A    between atoms: C12_11  and  O13_12 
REMARK    4  A    between atoms: C22_20  and  C24_21 
REMARK    5  A    between atoms: C24_21  and  C25_22 
ROOT
ATOM      1  C9  ZIN AC000      -4.783  -3.176  -1.104  0.00  0.00     0.220 C 
ATOM      2  C10 ZIN AC000      -4.683  -4.702  -1.166  0.00  0.00     0.082 C 
ATOM      3  O11 ZIN AC000      -5.450  -2.668  -2.276  0.00  0.00    -0.296 OA
ATOM      4  C12 ZIN AC000      -6.185  -1.530  -1.799  0.00  0.00     0.276 C 
ATOM      5  C14 ZIN AC000      -7.467  -1.352  -2.587  0.00  0.00     0.173 C 
ATOM      6  C16 ZIN AC000      -7.250  -0.389  -3.775  0.00  0.00     0.034 C 
ATOM      7  C17 ZIN AC000      -8.682   0.124  -4.062  0.00  0.00     0.022 C 
ATOM      8  C18 ZIN AC000      -9.462  -0.116  -2.755  0.00  0.00     0.127 C 
ATOM      9  N19 ZIN AC000      -8.516  -0.709  -1.783  0.00  0.00    -0.338 N 
ATOM     10  C20 ZIN AC000      -8.605  -0.632  -0.448  0.00  0.00     0.243 C 
ATOM     11  O21 ZIN AC000      -9.614  -0.187   0.056  0.00  0.00    -0.271 OA
ATOM     12  C22 ZIN AC000      -7.476  -1.089   0.436  0.00  0.00     0.189 C 
ATOM     13  N31 ZIN AC000      -6.463  -1.762  -0.380  0.00  0.00    -0.277 N 
ATOM     14  C32 ZIN AC000      -5.655  -2.754   0.059  0.00  0.00     0.280 C 
ATOM     15  O33 ZIN AC000      -5.650  -3.236   1.172  0.00  0.00    -0.268 OA
ENDROOT
BRANCH   1  16
ATOM     16  N8  ZIN AC000      -3.449  -2.584  -0.981  0.00  0.00    -0.321 N 
ATOM     17  C6  ZIN AC000      -2.587  -2.645  -2.014  0.00  0.00     0.226 C 
ATOM     18  O7  ZIN AC000      -2.946  -3.107  -3.077  0.00  0.00    -0.273 OA
ATOM     19  H54 ZIN AC000      -3.186  -2.148  -0.155  0.00  0.00     0.166 HD
BRANCH  17  20
ATOM     20  C4  ZIN AC000      -1.177  -2.139  -1.850  0.00  0.00     0.107 C 
ATOM     21  C3  ZIN AC000      -0.510  -2.856  -0.673  0.00  0.00     0.286 C 
ATOM     22  N2  ZIN AC000       0.868  -2.373  -0.524  0.00  0.00     0.090 N 
ATOM     23  C1  ZIN AC000       1.494  -2.932   0.681  0.00  0.00     0.310 C 
ATOM     24  C47 ZIN AC000       1.669  -2.668  -1.719  0.00  0.00     0.235 C 
ATOM     25  C35 ZIN AC000       1.067  -1.956  -2.931  0.00  0.00     0.054 C 
ATOM     26  C46 ZIN AC000       3.124  -2.269  -1.431  0.00  0.00     0.077 C 
ATOM     27  C34 ZIN AC000      -0.380  -2.420  -3.127  0.00  0.00     0.027 C 
ATOM     28  C37 ZIN AC000       1.865  -2.265  -4.161  0.00  0.00    -0.039 A 
ATOM     29  C45 ZIN AC000       1.438  -2.321  -5.450  0.00  0.00     0.008 A 
ATOM     30  C38 ZIN AC000       3.224  -2.531  -3.970  0.00  0.00     0.005 A 
ATOM     31  C44 ZIN AC000       2.332  -2.621  -6.477  0.00  0.00     0.003 A 
ATOM     32  C43 ZIN AC000       3.683  -2.880  -6.285  0.00  0.00     0.030 A 
ATOM     33  C42 ZIN AC000       4.152  -2.832  -4.973  0.00  0.00     0.043 A 
ATOM     34  N41 ZIN AC000       5.340  -3.007  -4.330  0.00  0.00    -0.365 N 
ATOM     35  C40 ZIN AC000       5.179  -2.835  -2.963  0.00  0.00     0.096 A 
ATOM     36  H75 ZIN AC000       6.180  -3.221  -4.766  0.00  0.00     0.165 HD
ATOM     37  C39 ZIN AC000       3.917  -2.547  -2.683  0.00  0.00    -0.028 A 
ENDBRANCH  17  20
ENDBRANCH   1  16
BRANCH   4  38
ATOM     38  O13 ZIN AC000      -5.388  -0.353  -1.942  0.00  0.00    -0.347 OA
ATOM     39  H58 ZIN AC000      -4.550  -0.384  -1.462  0.00  0.00     0.215 HD
ENDBRANCH   4  38
BRANCH  12  40
ATOM     40  C24 ZIN AC000      -6.822   0.127   1.097  0.00  0.00     0.073 C 
BRANCH  40  41
ATOM     41  C25 ZIN AC000      -5.777  -0.337   2.079  0.00  0.00    -0.056 A 
ATOM     42  C30 ZIN AC000      -4.451  -0.410   1.694  0.00  0.00     0.007 A 
ATOM     43  C29 ZIN AC000      -3.492  -0.831   2.595  0.00  0.00     0.001 A 
ATOM     44  C28 ZIN AC000      -3.860  -1.188   3.879  0.00  0.00     0.000 A 
ATOM     45  C27 ZIN AC000      -5.186  -1.121   4.262  0.00  0.00     0.001 A 
ATOM     46  C26 ZIN AC000      -6.145  -0.695   3.362  0.00  0.00     0.007 A 
ENDBRANCH  40  41
ENDBRANCH  12  40
TORSDOF 5
