REMARK  6 active torsions:
REMARK  status: ('A' for Active; 'I' for Inactive)
REMARK    1  A    between atoms: C2_2  and  O3_3 
REMARK    2  A    between atoms: C2_2  and  C18_16 
REMARK    3  A    between atoms: O3_3  and  C4_4 
REMARK    4  A    between atoms: C18_16  and  O19_17 
REMARK    5  A    between atoms: C18_16  and  C20_18 
REMARK    6  A    between atoms: C18_16  and  C26_24 
ROOT
ATOM      1  O1  ZIN AC000       0.507   0.504   0.361  0.00  0.00    -0.261 OA
ATOM      2  C2  ZIN AC000       0.122   1.647   0.299  0.00  0.00     0.303 C 
ENDROOT
BRANCH   2   3
ATOM      3  O3  ZIN AC000       0.988   2.657   0.475  0.00  0.00    -0.313 OA
BRANCH   3   4
ATOM      4  C4  ZIN AC000       2.372   2.301   0.735  0.00  0.00     0.136 C 
ATOM      5  C12 ZIN AC000       3.020   3.382   1.605  0.00  0.00     0.066 C 
ATOM      6  C10 ZIN AC000       3.069   4.690   0.795  0.00  0.00     0.193 C 
ATOM      7  C9  ZIN AC000       1.686   4.913   0.137  0.00  0.00     0.036 C 
ATOM      8  N13 ZIN AC000       3.990   4.441  -0.356  0.00  0.00    -0.058 N 
ATOM      9  C8  ZIN AC000       1.768   4.173  -1.216  0.00  0.00     0.036 C 
ATOM     10  C6  ZIN AC000       3.194   3.571  -1.251  0.00  0.00     0.193 C 
ATOM     11  C5  ZIN AC000       3.125   2.182  -0.593  0.00  0.00     0.066 C 
ATOM     12  C17 ZIN AC000       4.345   5.698  -1.023  0.00  0.00     0.238 C 
ATOM     13  C14 ZIN AC000       5.214   3.764   0.096  0.00  0.00     0.238 C 
ATOM     14  C16 ZIN AC000       5.886   5.801  -0.996  0.00  0.00     0.030 C 
ATOM     15  C15 ZIN AC000       6.332   4.325  -0.821  0.00  0.00     0.030 C 
ENDBRANCH   3   4
ENDBRANCH   2   3
BRANCH   2  16
ATOM     16  C18 ZIN AC000      -1.329   1.940   0.019  0.00  0.00     0.201 C 
BRANCH  16  17
ATOM     17  O19 ZIN AC000      -1.729   3.106   0.742  0.00  0.00    -0.371 OA
ATOM     18  H49 ZIN AC000      -1.634   3.026   1.701  0.00  0.00     0.212 HD
ENDBRANCH  16  17
BRANCH  16  19
ATOM     19  C20 ZIN AC000      -1.518   2.175  -1.458  0.00  0.00    -0.009 A 
ATOM     20  C25 ZIN AC000      -2.362   3.179  -1.895  0.00  0.00     0.011 A 
ATOM     21  C24 ZIN AC000      -2.532   3.398  -3.249  0.00  0.00     0.001 A 
ATOM     22  C23 ZIN AC000      -1.865   2.607  -4.166  0.00  0.00     0.000 A 
ATOM     23  C22 ZIN AC000      -1.026   1.599  -3.729  0.00  0.00     0.001 A 
ATOM     24  C21 ZIN AC000      -0.853   1.383  -2.374  0.00  0.00     0.011 A 
ENDBRANCH  16  19
BRANCH  16  25
ATOM     25  C26 ZIN AC000      -2.171   0.767   0.452  0.00  0.00    -0.009 A 
ATOM     26  C31 ZIN AC000      -2.040  -0.452  -0.186  0.00  0.00     0.011 A 
ATOM     27  C30 ZIN AC000      -2.809  -1.528   0.214  0.00  0.00     0.001 A 
ATOM     28  C29 ZIN AC000      -3.715  -1.384   1.248  0.00  0.00     0.000 A 
ATOM     29  C28 ZIN AC000      -3.850  -0.164   1.883  0.00  0.00     0.001 A 
ATOM     30  C27 ZIN AC000      -3.078   0.912   1.485  0.00  0.00     0.011 A 
ENDBRANCH  16  25
ENDBRANCH   2  16
TORSDOF 6
