REMARK  9 active torsions:
REMARK  status: ('A' for Active; 'I' for Inactive)
REMARK    1  A    between atoms: C2_2  and  N4_4 
REMARK    2  A    between atoms: N4_4  and  C7_7 
REMARK    3  A    between atoms: C7_7  and  C8_8 
REMARK    4  A    between atoms: C8_8  and  O10_9 
REMARK    5  A    between atoms: C8_8  and  C11_10 
REMARK    6  A    between atoms: C11_10  and  O12_11 
REMARK    7  A    between atoms: O12_11  and  C13_12 
REMARK    8  A    between atoms: C16_15  and  C17_16 
REMARK    9  A    between atoms: C17_16  and  C18_17 
REMARK       I    between atoms: C18_17  and  N19_18 
ROOT
ATOM      1  C13 ZIN AC000      -4.279  -5.857  -0.473  0.00  0.00     0.068 A 
ATOM      2  C14 ZIN AC000      -3.172  -6.692  -0.488  0.00  0.00     0.037 A 
ATOM      3  C15 ZIN AC000      -3.340  -8.057  -0.617  0.00  0.00     0.010 A 
ATOM      4  C16 ZIN AC000      -4.610  -8.591  -0.731  0.00  0.00    -0.049 A 
ATOM      5  C21 ZIN AC000      -5.715  -7.761  -0.715  0.00  0.00     0.010 A 
ATOM      6  C22 ZIN AC000      -5.553  -6.396  -0.582  0.00  0.00     0.037 A 
ENDROOT
BRANCH   1   7
ATOM      7  O12 ZIN AC000      -4.117  -4.514  -0.346  0.00  0.00    -0.349 OA
BRANCH   7   8
ATOM      8  C11 ZIN AC000      -2.777  -4.029  -0.239  0.00  0.00     0.209 C 
BRANCH   8   9
ATOM      9  C8  ZIN AC000      -2.795  -2.505  -0.105  0.00  0.00     0.168 C 
BRANCH   9  10
ATOM     10  C7  ZIN AC000      -1.359  -1.976  -0.116  0.00  0.00     0.266 C 
BRANCH  10  11
ATOM     11  N4  ZIN AC000      -1.376  -0.512   0.012  0.00  0.00    -0.069 N 
ATOM     12  H5  ZIN AC000      -1.823  -0.256   0.880  0.00  0.00     0.277 HD
ATOM     13  H6  ZIN AC000      -1.888  -0.113  -0.760  0.00  0.00     0.277 HD
BRANCH  11  14
ATOM     14  C2  ZIN AC000       0.002  -0.004   0.002  0.00  0.00     0.178 C 
ATOM     15  C1  ZIN AC000      -0.019   1.526   0.010  0.00  0.00     0.039 C 
ATOM     16  C3  ZIN AC000       0.742  -0.511   1.242  0.00  0.00     0.039 C 
ENDBRANCH  11  14
ENDBRANCH  10  11
ENDBRANCH   9  10
BRANCH   9  17
ATOM     17  O10 ZIN AC000      -3.427  -2.143   1.124  0.00  0.00    -0.392 OA
ATOM     18  H32 ZIN AC000      -2.987  -2.493   1.911  0.00  0.00     0.210 HD
ENDBRANCH   9  17
ENDBRANCH   8   9
ENDBRANCH   7   8
ENDBRANCH   1   7
BRANCH   4  19
ATOM     19  C17 ZIN AC000      -4.790 -10.081  -0.871  0.00  0.00     0.141 C 
BRANCH  19  20
ATOM     20  C18 ZIN AC000      -4.924 -10.702   0.496  0.00  0.00     0.219 C 
ATOM     21  N19 ZIN AC000      -5.095 -12.033   0.617  0.00  0.00    -0.370 N 
ATOM     22  H39 ZIN AC000      -5.132 -12.592  -0.175  0.00  0.00     0.159 HD
ATOM     23  H40 ZIN AC000      -5.182 -12.433   1.497  0.00  0.00     0.159 HD
ATOM     24  O20 ZIN AC000      -4.878 -10.004   1.486  0.00  0.00    -0.273 OA
ENDBRANCH  19  20
ENDBRANCH   4  19
TORSDOF 9
