REMARK  2 active torsions:
REMARK  status: ('A' for Active; 'I' for Inactive)
REMARK    1  A    between atoms: C2_2  and  O4_3 
REMARK    2  A    between atoms: C2_2  and  C5_4 
ROOT
ATOM      1  C1  <0> d          -0.019   1.526   0.010  0.00  0.00     0.050 C 
ATOM      2  C2  <0> d           0.002  -0.004   0.002  0.00  0.00     0.214 C 
ENDROOT
BRANCH   2   3
ATOM      3  O4  <0> d           0.693  -0.477   1.160  0.00  0.00    -0.385 OA
ATOM      4  H11 <0> d           1.611  -0.180   1.219  0.00  0.00     0.210 HD
ENDBRANCH   2   3
BRANCH   2   5
ATOM      5  C5  <0> d          -1.412  -0.526   0.013  0.00  0.00     0.202 C 
ATOM      6  O6  <0> d          -2.147  -0.313  -0.936  0.00  0.00    -0.646 OA
ATOM      7  O7  <0> d          -1.820  -1.161   0.970  0.00  0.00    -0.646 OA
ENDBRANCH   2   5
TORSDOF 2
