REMARK  6 active torsions:
REMARK  status: ('A' for Active; 'I' for Inactive)
REMARK    1  A    between atoms: O2_2  and  C3_3 
REMARK    2  A    between atoms: C3_3  and  C5_5 
REMARK    3  A    between atoms: C11_11  and  C12_12 
REMARK    4  A    between atoms: C12_12  and  O14_14 
REMARK    5  A    between atoms: C16_16  and  C17_17 
REMARK    6  A    between atoms: C22_22  and  N23_23 
ROOT
ATOM      1  C5  ZIN AC000       0.530  -2.114   0.984  0.00  0.00     0.052 C 
ATOM      2  C6  ZIN AC000       1.400  -2.566   1.903  0.00  0.00     0.018 C 
ATOM      3  C7  ZIN AC000       2.144  -1.584   2.772  0.00  0.00     0.069 C 
ATOM      4  N8  ZIN AC000       1.619  -3.908   2.061  0.00  0.00    -0.362 N 
ATOM      5  C9  ZIN AC000       1.253  -4.787   1.079  0.00  0.00     0.018 C 
ATOM      6  C10 ZIN AC000       1.838  -6.175   1.066  0.00  0.00     0.069 C 
ATOM      7  C11 ZIN AC000       0.376  -4.427   0.125  0.00  0.00     0.052 C 
ATOM      8  C16 ZIN AC000      -0.243  -3.057   0.107  0.00  0.00     0.103 C 
ATOM      9  H32 ZIN AC000       2.036  -4.237   2.873  0.00  0.00     0.165 HD
ENDROOT
BRANCH   8  10
ATOM     10  C17 ZIN AC000      -1.666  -3.149   0.595  0.00  0.00    -0.012 A 
ATOM     11  C22 ZIN AC000      -2.696  -2.639  -0.174  0.00  0.00     0.110 A 
ATOM     12  C21 ZIN AC000      -4.001  -2.728   0.271  0.00  0.00     0.037 A 
ATOM     13  C20 ZIN AC000      -4.277  -3.319   1.490  0.00  0.00     0.002 A 
ATOM     14  C19 ZIN AC000      -3.247  -3.824   2.262  0.00  0.00     0.001 A 
ATOM     15  C18 ZIN AC000      -1.942  -3.739   1.814  0.00  0.00     0.011 A 
BRANCH  11  16
ATOM     16  N23 ZIN AC000      -2.400  -2.006  -1.480  0.00  0.00    -0.115 N 
ATOM     17  O24 ZIN AC000      -1.431  -1.278  -1.598  0.00  0.00    -0.532 OA
ATOM     18  O25 ZIN AC000      -3.127  -2.213  -2.435  0.00  0.00    -0.532 OA
ENDBRANCH  11  16
ENDBRANCH   8  10
BRANCH   1  19
ATOM     19  C3  ZIN AC000       0.335  -0.720   0.843  0.00  0.00     0.291 C 
ATOM     20  O4  ZIN AC000       0.895  -0.115  -0.051  0.00  0.00    -0.260 OA
BRANCH  19  21
ATOM     21  O2  ZIN AC000      -0.473  -0.062   1.700  0.00  0.00    -0.323 OA
ATOM     22  C1  ZIN AC000      -0.625   1.345   1.499  0.00  0.00     0.213 C 
ENDBRANCH  19  21
ENDBRANCH   1  19
BRANCH   7  23
ATOM     23  C12 ZIN AC000       0.026  -5.359  -0.879  0.00  0.00     0.291 C 
ATOM     24  O13 ZIN AC000       0.516  -6.473  -0.874  0.00  0.00    -0.260 OA
BRANCH  23  25
ATOM     25  O14 ZIN AC000      -0.853  -5.013  -1.844  0.00  0.00    -0.323 OA
ATOM     26  C15 ZIN AC000      -1.161  -6.004  -2.826  0.00  0.00     0.213 C 
ENDBRANCH  23  25
ENDBRANCH   7  23
TORSDOF 6
