REMARK  6 active torsions:
REMARK  status: ('A' for Active; 'I' for Inactive)
REMARK    1  A    between atoms: C7_7  and  O9_8 
REMARK    2  A    between atoms: O9_8  and  C10_9 
REMARK    3  A    between atoms: C10_9  and  C12_11 
REMARK    4  A    between atoms: C12_11  and  O13_12 
REMARK    5  A    between atoms: C12_11  and  C14_13 
REMARK    6  A    between atoms: C12_11  and  C20_19 
ROOT
ATOM      1  C12 <0> d           1.631  -4.210   4.164  0.00  0.00     0.201 C 
ENDROOT
BRANCH   1   2
ATOM      2  C10 <0> d           1.456  -3.473   2.861  0.00  0.00     0.303 C 
ATOM      3  O11 <0> d           0.601  -3.821   2.081  0.00  0.00    -0.261 OA
BRANCH   2   4
ATOM      4  O9  <0> d           2.248  -2.430   2.568  0.00  0.00    -0.311 OA
BRANCH   4   5
ATOM      5  C7  <0> d           2.022  -1.768   1.296  0.00  0.00     0.158 C 
ATOM      6  C6  <0> d           2.884  -2.428   0.215  0.00  0.00     0.036 C 
ATOM      7  C5  <0> d           2.696  -1.674  -1.105  0.00  0.00     0.030 C 
ATOM      8  C4  <0> d           3.053  -0.200  -0.898  0.00  0.00     0.236 C 
ATOM      9  N2  <0> d           2.178   0.380   0.127  0.00  0.00    -0.072 N 
ATOM     10  C1  <0> d           2.471   1.813   0.266  0.00  0.00     0.272 C 
ATOM     11  C26 <0> d           2.404  -0.291   1.413  0.00  0.00     0.268 C 
ATOM     12  C3  <0> d           0.775   0.206  -0.275  0.00  0.00     0.272 C 
ENDBRANCH   4   5
ENDBRANCH   2   4
ENDBRANCH   1   2
BRANCH   1  13
ATOM     13  O13 <0> d           3.018  -4.243   4.509  0.00  0.00    -0.371 OA
ATOM     14  H39 <0> d           3.576  -4.684   3.854  0.00  0.00     0.212 HD
ENDBRANCH   1  13
BRANCH   1  15
ATOM     15  C14 <0> d           0.860  -3.504   5.249  0.00  0.00    -0.009 A 
ATOM     16  C19 <0> d           1.403  -3.379   6.514  0.00  0.00     0.011 A 
ATOM     17  C18 <0> d           0.697  -2.727   7.508  0.00  0.00     0.001 A 
ATOM     18  C17 <0> d          -0.555  -2.208   7.239  0.00  0.00     0.000 A 
ATOM     19  C16 <0> d          -1.101  -2.338   5.975  0.00  0.00     0.001 A 
ATOM     20  C15 <0> d          -0.393  -2.986   4.980  0.00  0.00     0.011 A 
ENDBRANCH   1  15
BRANCH   1  21
ATOM     21  C20 <0> d           1.117  -5.619   4.017  0.00  0.00    -0.009 A 
ATOM     22  C25 <0> d          -0.230  -5.844   3.800  0.00  0.00     0.011 A 
ATOM     23  C24 <0> d          -0.701  -7.136   3.661  0.00  0.00     0.001 A 
ATOM     24  C23 <0> d           0.172  -8.204   3.749  0.00  0.00     0.000 A 
ATOM     25  C22 <0> d           1.518  -7.979   3.971  0.00  0.00     0.001 A 
ATOM     26  C21 <0> d           1.990  -6.687   4.106  0.00  0.00     0.011 A 
ENDBRANCH   1  21
TORSDOF 6
