REMARK  3 active torsions:
REMARK  status: ('A' for Active; 'I' for Inactive)
REMARK       I    between atoms: N1_1  and  C2_2 
REMARK    1  A    between atoms: C2_2  and  C4_4 
REMARK    2  A    between atoms: N6_6  and  C7_7 
REMARK    3  A    between atoms: C7_7  and  C8_8 
ROOT
ATOM      1  C4  <0> d          -1.265  -0.759   0.010  0.00  0.00     0.165 A 
ATOM      2  C5  <0> d          -1.384  -2.120   0.009  0.00  0.00     0.153 A 
ATOM      3  N6  <0> d          -2.704  -2.397   0.019  0.00  0.00    -0.256 N 
ATOM      4  N16 <0> d          -3.376  -1.166   0.025  0.00  0.00    -0.065 NA
ATOM      5  N17 <0> d          -2.498  -0.224   0.025  0.00  0.00    -0.125 NA
ENDROOT
BRANCH   3   6
ATOM      6  C7  <0> d          -3.317  -3.727   0.022  0.00  0.00     0.197 C 
BRANCH   6   7
ATOM      7  C8  <0> d          -4.258  -3.844   1.193  0.00  0.00     0.039 A 
ATOM      8  C14 <0> d          -5.588  -3.485   1.050  0.00  0.00     0.127 A 
ATOM      9  C13 <0> d          -6.454  -3.598   2.125  0.00  0.00     0.043 A 
ATOM     10  F15 <0> d          -6.043  -3.036  -0.140  0.00  0.00    -0.205 F 
ATOM     11  C12 <0> d          -5.988  -4.057   3.343  0.00  0.00     0.006 A 
ATOM     12  C11 <0> d          -4.660  -4.410   3.487  0.00  0.00     0.043 A 
ATOM     13  C9  <0> d          -3.793  -4.303   2.413  0.00  0.00     0.127 A 
ATOM     14  F10 <0> d          -2.495  -4.648   2.554  0.00  0.00    -0.205 F 
ENDBRANCH   6   7
ENDBRANCH   3   6
BRANCH   1  15
ATOM     15  C2  <0> d           0.002  -0.004   0.002  0.00  0.00     0.271 C 
ATOM     16  N1  <0> d          -0.016   1.344   0.009  0.00  0.00    -0.365 N 
ATOM     17  H18 <0> d           0.817   1.840   0.004  0.00  0.00     0.159 HD
ATOM     18  H19 <0> d          -0.863   1.817   0.016  0.00  0.00     0.159 HD
ATOM     19  O3  <0> d           1.063  -0.598  -0.011  0.00  0.00    -0.266 OA
ENDBRANCH   1  15
TORSDOF 3
