REMARK  10 active torsions:
REMARK  status: ('A' for Active; 'I' for Inactive)
REMARK    1  A    between atoms: C2_2  and  C3_3 
REMARK       I    between atoms: C3_3  and  N5_5 
REMARK    2  A    between atoms: N5_5  and  C6_6 
REMARK    3  A    between atoms: C8_8  and  N9_9 
REMARK    4  A    between atoms: N9_9  and  C10_10 
REMARK    5  A    between atoms: C14_14  and  C15_15 
REMARK    6  A    between atoms: C26_26  and  O27_27 
REMARK    7  A    between atoms: C30_30  and  N31_31 
REMARK    8  A    between atoms: N31_31  and  C33_33 
REMARK    9  A    between atoms: C33_33  and  C34_34 
REMARK   10  A    between atoms: C34_34  and  N35_35 
ROOT
ATOM      1  C6  ZIN AC000       2.546  -2.693  -0.083  0.00  0.00     0.058 A 
ATOM      2  C7  ZIN AC000       3.716  -1.947  -0.092  0.00  0.00     0.064 A 
ATOM      3  C8  ZIN AC000       4.942  -2.583  -0.214  0.00  0.00     0.085 A 
ATOM      4  C26 ZIN AC000       5.000  -3.970  -0.327  0.00  0.00     0.097 A 
ATOM      5  C29 ZIN AC000       3.832  -4.716  -0.318  0.00  0.00     0.065 A 
ATOM      6  C30 ZIN AC000       2.605  -4.082  -0.192  0.00  0.00     0.040 A 
ENDROOT
BRANCH   3   7
ATOM      7  N9  ZIN AC000       6.126  -1.829  -0.223  0.00  0.00    -0.185 N 
ATOM      8  H43 ZIN AC000       6.962  -2.236   0.053  0.00  0.00     0.184 HD
BRANCH   7   9
ATOM      9  C10 ZIN AC000       6.099  -0.505  -0.625  0.00  0.00     0.727 A 
ATOM     10  N25 ZIN AC000       7.200   0.224  -0.518  0.00  0.00    -0.062 NA
ATOM     11  C14 ZIN AC000       7.208   1.500  -0.902  0.00  0.00     0.089 A 
ATOM     12  C13 ZIN AC000       6.030   2.062  -1.409  0.00  0.00     0.053 A 
ATOM     13  C12 ZIN AC000       4.905   1.266  -1.497  0.00  0.00     0.139 A 
ATOM     14  N11 ZIN AC000       4.972   0.003  -1.102  0.00  0.00    -0.075 NA
BRANCH  11  15
ATOM     15  C15 ZIN AC000       8.439   2.311  -0.787  0.00  0.00     0.021 A 
ATOM     16  C24 ZIN AC000       9.744   1.861  -0.275  0.00  0.00     0.005 A 
ATOM     17  C19 ZIN AC000      10.598   2.974  -0.363  0.00  0.00     0.045 A 
ATOM     18  C23 ZIN AC000      10.227   0.648   0.210  0.00  0.00     0.014 A 
ATOM     19  N17 ZIN AC000       9.861   4.019  -0.879  0.00  0.00    -0.359 N 
ATOM     20  C20 ZIN AC000      11.921   2.853   0.049  0.00  0.00     0.030 A 
ATOM     21  C16 ZIN AC000       8.584   3.618  -1.127  0.00  0.00     0.105 A 
ATOM     22  C18 ZIN AC000      10.378   5.367  -1.125  0.00  0.00     0.156 C 
ATOM     23  C21 ZIN AC000      12.383   1.649   0.533  0.00  0.00     0.002 A 
ATOM     24  C22 ZIN AC000      11.541   0.549   0.613  0.00  0.00     0.001 A 
ENDBRANCH  11  15
ENDBRANCH   7   9
ENDBRANCH   3   7
BRANCH   4  25
ATOM     25  O27 ZIN AC000       6.204  -4.593  -0.446  0.00  0.00    -0.354 OA
ATOM     26  C28 ZIN AC000       6.188  -6.018  -0.557  0.00  0.00     0.210 C 
ENDBRANCH   4  25
BRANCH   1  27
ATOM     27  N5  ZIN AC000       1.306  -2.051   0.041  0.00  0.00    -0.322 N 
ATOM     28  C3  ZIN AC000       1.229  -0.843   0.634  0.00  0.00     0.244 C 
ATOM     29  O4  ZIN AC000       2.215  -0.355   1.152  0.00  0.00    -0.268 OA
ATOM     30  H41 ZIN AC000       0.503  -2.476  -0.300  0.00  0.00     0.169 HD
BRANCH  28  31
ATOM     31  C2  ZIN AC000      -0.049  -0.114   0.654  0.00  0.00     0.064 C 
ATOM     32  C1  ZIN AC000      -0.125   1.078   1.239  0.00  0.00     0.017 C 
ENDBRANCH  28  31
ENDBRANCH   1  27
BRANCH   6  33
ATOM     33  N31 ZIN AC000       1.424  -4.836  -0.183  0.00  0.00    -0.284 NA
ATOM     34  C32 ZIN AC000       1.228  -5.523  -1.467  0.00  0.00     0.116 C 
BRANCH  33  35
ATOM     35  C33 ZIN AC000       1.418  -5.793   0.932  0.00  0.00     0.125 C 
BRANCH  35  36
ATOM     36  C34 ZIN AC000       0.028  -6.417   1.062  0.00  0.00     0.286 C 
BRANCH  36  37
ATOM     37  N35 ZIN AC000       0.022  -7.373   2.176  0.00  0.00     0.081 N 
ATOM     38  C36 ZIN AC000       0.218  -6.687   3.460  0.00  0.00     0.309 C 
ATOM     39  C37 ZIN AC000      -1.216  -8.164   2.186  0.00  0.00     0.309 C 
ENDBRANCH  36  37
ENDBRANCH  35  36
ENDBRANCH  33  35
ENDBRANCH   6  33
TORSDOF 10
