REMARK  3 active torsions:
REMARK  status: ('A' for Active; 'I' for Inactive)
REMARK       I    between atoms: N1_1  and  C2_2 
REMARK    1  A    between atoms: C2_2  and  C4_4 
REMARK    2  A    between atoms: N14_12  and  O15_13 
REMARK    3  A    between atoms: O15_13  and  S16_14 
ROOT
ATOM      1  C4  ZIN AC000      -1.293  -0.775   0.010  0.00  0.00     0.181 C 
ATOM      2  C6  ZIN AC000      -2.080  -0.574   1.343  0.00  0.00     0.037 C 
ATOM      3  C7  ZIN AC000      -1.459  -1.397   2.463  0.00  0.00     0.032 C 
ATOM      4  C8  ZIN AC000      -1.094  -2.849   2.159  0.00  0.00     0.139 C 
ATOM      5  C10 ZIN AC000      -0.010  -2.768   1.011  0.00  0.00     0.156 C 
ATOM      6  N11 ZIN AC000      -1.067  -2.215   0.143  0.00  0.00    -0.317 N 
ATOM      7  C12 ZIN AC000      -1.986  -3.177   0.067  0.00  0.00     0.346 C 
ATOM      8  O13 ZIN AC000      -2.516  -3.643  -0.922  0.00  0.00    -0.245 OA
ATOM      9  N14 ZIN AC000      -2.195  -3.519   1.410  0.00  0.00    -0.181 N 
ENDROOT
BRANCH   1  10
ATOM     10  C2  ZIN AC000       0.002  -0.004   0.002  0.00  0.00     0.238 C 
ATOM     11  N1  ZIN AC000      -0.016   1.344   0.009  0.00  0.00    -0.368 N 
ATOM     12  H20 ZIN AC000       0.817   1.840   0.004  0.00  0.00     0.159 HD
ATOM     13  H21 ZIN AC000      -0.863   1.817   0.016  0.00  0.00     0.159 HD
ATOM     14  O3  ZIN AC000       1.060  -0.596  -0.011  0.00  0.00    -0.271 OA
ENDBRANCH   1  10
BRANCH   9  15
ATOM     15  O15 ZIN AC000      -3.232  -4.333   1.926  0.00  0.00    -0.125 OA
BRANCH  15  16
ATOM     16  S16 ZIN AC000      -2.885  -5.814   1.989  0.00  0.00     0.274 S 
ATOM     17  O17 ZIN AC000      -4.136  -6.530   2.184  0.00  0.00    -0.571 OA
ATOM     18  O18 ZIN AC000      -2.255  -6.151   0.721  0.00  0.00    -0.571 OA
ATOM     19  O19 ZIN AC000      -1.977  -5.984   3.112  0.00  0.00    -0.571 OA
ENDBRANCH  15  16
ENDBRANCH   9  15
TORSDOF 3
