REMARK  3 active torsions:
REMARK  status: ('A' for Active; 'I' for Inactive)
REMARK       I    between atoms: N2_2  and  C4_4 
REMARK    1  A    between atoms: C4_4  and  O6_6 
REMARK    2  A    between atoms: O6_6  and  C7_7 
REMARK    3  A    between atoms: C11_11  and  N12_12 
ROOT
ATOM      1  C7  <0> d          -0.017  -2.717  -2.342  0.00  0.00     0.083 A 
ATOM      2  C8  <0> d           0.006  -2.045  -3.555  0.00  0.00     0.037 A 
ATOM      3  C9  <0> d          -0.030  -2.757  -4.739  0.00  0.00     0.005 A 
ATOM      4  C10 <0> d          -0.090  -4.138  -4.714  0.00  0.00     0.037 A 
ATOM      5  C11 <0> d          -0.114  -4.810  -3.506  0.00  0.00     0.138 A 
ATOM      6  C16 <0> d          -0.072  -4.103  -2.320  0.00  0.00     0.074 A 
ENDROOT
BRANCH   1   7
ATOM      7  O6  <0> d           0.018  -2.018  -1.176  0.00  0.00    -0.261 OA
BRANCH   7   8
ATOM      8  C4  <0> d          -1.126  -1.427  -0.782  0.00  0.00     0.367 C 
ATOM      9  N2  <0> d          -1.186  -0.804   0.411  0.00  0.00    -0.336 N 
ATOM     10  C1  <0> d          -2.431  -0.161   0.840  0.00  0.00     0.154 C 
ATOM     11  C3  <0> d          -0.007  -0.769   1.280  0.00  0.00     0.154 C 
ATOM     12  O5  <0> d          -2.104  -1.457  -1.502  0.00  0.00    -0.238 OA
ENDBRANCH   7   8
ENDBRANCH   1   7
BRANCH   5  13
ATOM     13  N12 <0> d          -0.175  -6.207  -3.484  0.00  0.00    -0.049 N 
ATOM     14  C13 <0> d          -0.204  -6.717  -4.862  0.00  0.00     0.278 C 
ATOM     15  C14 <0> d           1.005  -6.738  -2.790  0.00  0.00     0.278 C 
ATOM     16  C15 <0> d          -1.391  -6.633  -2.779  0.00  0.00     0.278 C 
ENDBRANCH   5  13
TORSDOF 3
