REMARK  2 active torsions:
REMARK  status: ('A' for Active; 'I' for Inactive)
REMARK    1  A    between atoms: C2_2  and  C4_4 
REMARK    2  A    between atoms: C7_6  and  C8_7 
ROOT
ATOM      1  C4  <0> d          -1.311   1.933  -0.000  0.00  0.00     0.301 C 
ATOM      2  N6  <0> d          -2.404   0.990  -0.232  0.00  0.00    -0.262 NA
ATOM      3  C7  <0> d          -2.597  -0.026   0.531  0.00  0.00     0.075 C 
ATOM      4  C14 <0> d          -1.769  -0.373   1.698  0.00  0.00     0.021 A 
ATOM      5  C15 <0> d          -1.471  -1.728   1.904  0.00  0.00     0.040 A 
ATOM      6  C16 <0> d          -0.699  -2.119   2.975  0.00  0.00     0.035 A 
ATOM      7 Cl17 <0> d          -0.339  -3.800   3.218  0.00  0.00    -0.084 Cl
ATOM      8  C18 <0> d          -0.210  -1.171   3.859  0.00  0.00     0.026 A 
ATOM      9  C19 <0> d          -0.495   0.164   3.670  0.00  0.00     0.032 A 
ATOM     10  C20 <0> d          -1.277   0.578   2.590  0.00  0.00     0.047 A 
ATOM     11  N21 <0> d          -1.525   1.937   2.468  0.00  0.00    -0.324 N 
ATOM     12  C22 <0> d          -1.527   2.618   1.322  0.00  0.00     0.257 C 
ATOM     13  O23 <0> d          -1.709   3.817   1.347  0.00  0.00    -0.270 OA
ATOM     14  H32 <0> d          -1.712   2.432   3.281  0.00  0.00     0.169 HD
ENDROOT
BRANCH   3  15
ATOM     15  C8  <0> d          -3.738  -0.916   0.213  0.00  0.00    -0.007 A 
ATOM     16  C13 <0> d          -4.249  -0.963  -1.084  0.00  0.00     0.014 A 
ATOM     17  C12 <0> d          -5.308  -1.797  -1.376  0.00  0.00     0.001 A 
ATOM     18  C11 <0> d          -5.871  -2.578  -0.382  0.00  0.00     0.000 A 
ATOM     19  C10 <0> d          -5.373  -2.532   0.908  0.00  0.00     0.001 A 
ATOM     20  C9  <0> d          -4.310  -1.706   1.210  0.00  0.00     0.014 A 
ENDBRANCH   3  15
BRANCH   1  21
ATOM     21  C2  <0> d           0.000   1.191   0.024  0.00  0.00     0.208 C 
ATOM     22  O1  <0> d           0.010  -0.028   0.042  0.00  0.00    -0.646 OA
ATOM     23  O3  <0> d           1.051   1.809   0.021  0.00  0.00    -0.646 OA
ENDBRANCH   1  21
TORSDOF 2
