REMARK  4 active torsions:
REMARK  status: ('A' for Active; 'I' for Inactive)
REMARK    1  A    between atoms: C8_8  and  C9_9 
REMARK    2  A    between atoms: C9_9  and  C11_11 
REMARK    3  A    between atoms: C14_14  and  C15_15 
REMARK    4  A    between atoms: C20_20  and  N21_21 
ROOT
ATOM      1  C11 ZIN AC000       2.326  -0.234  -0.015  0.00  0.00     0.035 A 
ATOM      2  C12 ZIN AC000       3.489  -1.010   0.051  0.00  0.00     0.018 A 
ATOM      3  C13 ZIN AC000       3.393  -2.382   0.145  0.00  0.00     0.017 A 
ATOM      4  C14 ZIN AC000       2.151  -2.992   0.174  0.00  0.00     0.050 A 
ATOM      5  C19 ZIN AC000       0.996  -2.231   0.110  0.00  0.00     0.053 A 
ATOM      6  C20 ZIN AC000       1.074  -0.858   0.021  0.00  0.00     0.116 A 
ENDROOT
BRANCH   1   7
ATOM      7  C9  ZIN AC000       2.420   1.231  -0.115  0.00  0.00     0.137 C 
ATOM      8  O10 ZIN AC000       2.896   1.947   0.921  0.00  0.00    -0.190 OA
BRANCH   7   9
ATOM      9  C8  ZIN AC000       2.014   1.879  -1.286  0.00  0.00     0.093 C 
ATOM     10  C2  ZIN AC000       1.665   1.115  -2.424  0.00  0.00     0.166 C 
ATOM     11  O1  ZIN AC000       1.718  -0.097  -2.377  0.00  0.00    -0.292 OA
ATOM     12  C3  ZIN AC000       1.224   1.797  -3.693  0.00  0.00     0.084 C 
ATOM     13  C4  ZIN AC000       1.902   3.165  -3.798  0.00  0.00     0.015 C 
ATOM     14  C5  ZIN AC000       1.529   4.007  -2.575  0.00  0.00     0.084 C 
ATOM     15  C6  ZIN AC000       1.966   3.293  -1.323  0.00  0.00     0.166 C 
ATOM     16  O7  ZIN AC000       2.275   3.933  -0.339  0.00  0.00    -0.292 OA
ENDBRANCH   7   9
ENDBRANCH   1   7
BRANCH   6  17
ATOM     17  N21 ZIN AC000      -0.162  -0.047  -0.047  0.00  0.00    -0.115 N 
ATOM     18  O22 ZIN AC000      -1.250  -0.588   0.026  0.00  0.00    -0.532 OA
ATOM     19  O23 ZIN AC000      -0.090   1.162  -0.177  0.00  0.00    -0.532 OA
ENDBRANCH   6  17
BRANCH   4  20
ATOM     20  C15 ZIN AC000       2.055  -4.493   0.277  0.00  0.00     0.417 C 
ATOM     21  F16 ZIN AC000       3.342  -5.039   0.329  0.00  0.00    -0.166 F 
ATOM     22  F17 ZIN AC000       1.355  -4.837   1.439  0.00  0.00    -0.166 F 
ATOM     23  F18 ZIN AC000       1.379  -4.995  -0.840  0.00  0.00    -0.166 F 
ENDBRANCH   4  20
TORSDOF 4
