REMARK  14 active torsions:
REMARK  status: ('A' for Active; 'I' for Inactive)
REMARK    1  A    between atoms: C2_2  and  C3_3 
REMARK    2  A    between atoms: C3_3  and  C4_4 
REMARK    3  A    between atoms: C4_4  and  C5_5 
REMARK    4  A    between atoms: C5_5  and  C6_6 
REMARK    5  A    between atoms: C6_6  and  O8_7 
REMARK    6  A    between atoms: C6_6  and  C9_8 
REMARK    7  A    between atoms: C10_9  and  C11_10 
REMARK    8  A    between atoms: C13_11  and  O15_12 
REMARK    9  A    between atoms: C19_16  and  C21_17 
REMARK   10  A    between atoms: C21_17  and  C22_18 
REMARK   11  A    between atoms: C23_19  and  C24_20 
REMARK   12  A    between atoms: C24_20  and  C25_21 
REMARK   13  A    between atoms: C25_21  and  C26_22 
REMARK   14  A    between atoms: C26_22  and  C27_23 
ROOT
ATOM      1  C11 <0> d          -6.492  -6.012  -0.531  0.00  0.00     0.048 C 
ATOM      2  C13 <0> d          -7.540  -5.705  -1.631  0.00  0.00     0.133 C 
ATOM      3  C16 <0> d          -8.601  -6.808  -1.393  0.00  0.00     0.111 C 
ATOM      4  C17 <0> d          -7.792  -8.037  -1.017  0.00  0.00     0.134 C 
ATOM      5  O18 <0> d          -8.141  -9.187  -1.134  0.00  0.00    -0.297 OA
ATOM      6  C19 <0> d          -6.465  -7.553  -0.464  0.00  0.00     0.069 C 
ENDROOT
BRANCH   1   7
ATOM      7  C10 <0> d          -5.140  -5.475  -0.923  0.00  0.00    -0.020 C 
ATOM      8  C9  <0> d          -4.514  -4.635  -0.136  0.00  0.00     0.001 C 
BRANCH   8   9
ATOM      9  C6  <0> d          -3.162  -4.099  -0.529  0.00  0.00     0.140 C 
BRANCH   9  10
ATOM     10  C5  <0> d          -3.196  -2.569  -0.516  0.00  0.00     0.036 C 
BRANCH  10  11
ATOM     11  C4  <0> d          -1.794  -2.025  -0.792  0.00  0.00     0.003 C 
BRANCH  11  12
ATOM     12  C3  <0> d          -1.828  -0.495  -0.780  0.00  0.00    -0.000 C 
BRANCH  12  13
ATOM     13  C2  <0> d          -0.425   0.049  -1.056  0.00  0.00    -0.005 C 
ATOM     14  C1  <0> d          -0.460   1.578  -1.043  0.00  0.00     0.005 C 
ENDBRANCH  12  13
ENDBRANCH  11  12
ENDBRANCH  10  11
ENDBRANCH   9  10
BRANCH   9  15
ATOM     15  O8  <0> d          -2.830  -4.557  -1.841  0.00  0.00    -0.392 OA
ATOM     16  H41 <0> d          -3.456  -4.280  -2.524  0.00  0.00     0.210 HD
ENDBRANCH   9  15
ENDBRANCH   8   9
ENDBRANCH   1   7
BRANCH   6  17
ATOM     17  C21 <0> d          -6.302  -8.017   0.985  0.00  0.00     0.040 C 
BRANCH  17  18
ATOM     18  C22 <0> d          -6.183  -9.519   1.021  0.00  0.00    -0.030 C 
ATOM     19  C23 <0> d          -5.178 -10.081   1.646  0.00  0.00    -0.031 C 
BRANCH  19  20
ATOM     20  C24 <0> d          -4.237  -9.240   2.470  0.00  0.00     0.027 C 
BRANCH  20  21
ATOM     21  C25 <0> d          -4.145  -9.815   3.885  0.00  0.00     0.014 C 
BRANCH  21  22
ATOM     22  C26 <0> d          -3.189  -8.961   4.721  0.00  0.00     0.113 C 
BRANCH  22  23
ATOM     23  C27 <0> d          -3.098  -9.528   6.114  0.00  0.00     0.172 C 
ATOM     24  O28 <0> d          -3.738 -10.523   6.411  0.00  0.00    -0.648 OA
ATOM     25  O29 <0> d          -2.384  -8.992   6.945  0.00  0.00    -0.648 OA
ENDBRANCH  22  23
ENDBRANCH  21  22
ENDBRANCH  20  21
ENDBRANCH  19  20
ENDBRANCH  17  18
ENDBRANCH   6  17
BRANCH   2  26
ATOM     26  O15 <0> d          -8.103  -4.405  -1.448  0.00  0.00    -0.394 OA
ATOM     27  H44 <0> d          -8.764  -4.166  -2.112  0.00  0.00     0.210 HD
ENDBRANCH   2  26
TORSDOF 14
