REMARK  7 active torsions:
REMARK  status: ('A' for Active; 'I' for Inactive)
REMARK    1  A    between atoms: C2_2  and  C3_3 
REMARK    2  A    between atoms: C8_8  and  C9_9 
REMARK    3  A    between atoms: C12_12  and  N13_13 
REMARK    4  A    between atoms: N13_13  and  C16_16 
REMARK    5  A    between atoms: C16_16  and  C17_17 
REMARK    6  A    between atoms: C17_17  and  O19_18 
REMARK    7  A    between atoms: C17_17  and  C20_19 
ROOT
ATOM      1  C16 ZIN AC000       0.097  -2.404  -7.769  0.00  0.00     0.269 C 
ENDROOT
BRANCH   1   2
ATOM      2  N13 ZIN AC000       1.165  -2.721  -6.812  0.00  0.00    -0.068 N 
ATOM      3  H14 ZIN AC000       2.042  -2.808  -7.303  0.00  0.00     0.277 HD
ATOM      4  H15 ZIN AC000       0.952  -3.591  -6.348  0.00  0.00     0.277 HD
BRANCH   2   5
ATOM      5  C12 ZIN AC000       1.265  -1.646  -5.816  0.00  0.00     0.194 C 
ATOM      6  C11 ZIN AC000       2.459  -1.886  -4.869  0.00  0.00     0.072 C 
ATOM      7  C6  ZIN AC000       2.000  -1.382  -3.517  0.00  0.00    -0.049 A 
ATOM      8  C5  ZIN AC000       0.623  -1.264  -3.506  0.00  0.00    -0.049 A 
ATOM      9  C7  ZIN AC000       2.729  -1.053  -2.386  0.00  0.00     0.015 A 
ATOM     10  C4  ZIN AC000      -0.021  -0.817  -2.364  0.00  0.00     0.015 A 
ATOM     11  C32 ZIN AC000       0.063  -1.680  -4.849  0.00  0.00     0.072 C 
ATOM     12  C3  ZIN AC000       0.707  -0.490  -1.238  0.00  0.00    -0.052 A 
ATOM     13  C8  ZIN AC000       2.085  -0.604  -1.251  0.00  0.00    -0.052 A 
BRANCH  12  14
ATOM     14  C2  ZIN AC000       0.002  -0.004   0.002  0.00  0.00     0.034 C 
ATOM     15  C1  ZIN AC000      -0.019   1.526   0.010  0.00  0.00     0.010 C 
ENDBRANCH  12  14
BRANCH  13  16
ATOM     16  C9  ZIN AC000       2.883  -0.246  -0.023  0.00  0.00     0.034 C 
ATOM     17  C10 ZIN AC000       2.930  -1.448   0.922  0.00  0.00     0.010 C 
ENDBRANCH  13  16
ENDBRANCH   2   5
ENDBRANCH   1   2
BRANCH   1  18
ATOM     18  C17 ZIN AC000      -0.008  -3.524  -8.807  0.00  0.00     0.177 C 
BRANCH  18  19
ATOM     19  O19 ZIN AC000       1.234  -3.646  -9.502  0.00  0.00    -0.389 OA
ATOM     20  H50 ZIN AC000       1.502  -2.845  -9.973  0.00  0.00     0.210 HD
ENDBRANCH  18  19
BRANCH  18  21
ATOM     21  C20 ZIN AC000      -1.104  -3.198  -9.789  0.00  0.00    -0.015 A 
ATOM     22  C26 ZIN AC000      -2.431  -3.530  -9.495  0.00  0.00     0.003 A 
ATOM     23  C25 ZIN AC000      -3.451  -3.220 -10.412  0.00  0.00     0.082 A 
ATOM     24  C27 ZIN AC000      -2.785  -4.190  -8.236  0.00  0.00     0.020 A 
ATOM     25  C23 ZIN AC000      -3.122  -2.591 -11.614  0.00  0.00     0.134 A 
ATOM     26  N31 ZIN AC000      -4.758  -3.544 -10.114  0.00  0.00    -0.320 N 
ATOM     27  C22 ZIN AC000      -1.803  -2.278 -11.884  0.00  0.00     0.043 A 
ATOM     28  O24 ZIN AC000      -4.095  -2.288 -12.515  0.00  0.00    -0.190 OA
ATOM     29  C21 ZIN AC000      -0.803  -2.583 -10.971  0.00  0.00     0.013 A 
ATOM     30  C29 ZIN AC000      -5.074  -4.146  -8.954  0.00  0.00     0.245 A 
ATOM     31  H55 ZIN AC000      -5.460  -3.330 -10.748  0.00  0.00     0.169 HD
ATOM     32  C28 ZIN AC000      -4.089  -4.479  -8.001  0.00  0.00     0.075 A 
ATOM     33  O30 ZIN AC000      -6.241  -4.415  -8.723  0.00  0.00    -0.268 OA
ENDBRANCH  18  21
ENDBRANCH   1  18
TORSDOF 7
