REMARK  16 active torsions:
REMARK  status: ('A' for Active; 'I' for Inactive)
REMARK    1  A    between atoms: C2_2  and  C4_4 
REMARK    2  A    between atoms: C4_4  and  N5_5 
REMARK    3  A    between atoms: N5_5  and  C6_6 
REMARK    4  A    between atoms: N5_5  and  C18_18 
REMARK    5  A    between atoms: C6_6  and  C7_7 
REMARK    6  A    between atoms: C7_7  and  N8_8 
REMARK    7  A    between atoms: N8_8  and  C10_10 
REMARK    8  A    between atoms: N8_8  and  C14_14 
REMARK    9  A    between atoms: C10_10  and  C11_11 
REMARK   10  A    between atoms: C14_14  and  C15_15 
REMARK   11  A    between atoms: C18_18  and  C19_19 
REMARK   12  A    between atoms: C19_19  and  N20_20 
REMARK   13  A    between atoms: N20_20  and  C22_22 
REMARK   14  A    between atoms: N20_20  and  C26_26 
REMARK   15  A    between atoms: C22_22  and  C23_23 
REMARK   16  A    between atoms: C26_26  and  C27_27 
ROOT
ATOM      1  N5  <0> d          -2.148   1.476   0.621  0.00  0.00     0.101 N 
ENDROOT
BRANCH   1   2
ATOM      2  C4  <0> d          -1.107   2.486   0.856  0.00  0.00     0.385 C 
BRANCH   2   3
ATOM      3  C2  <0> d          -1.129   3.499  -0.259  0.00  0.00     0.202 C 
ATOM      4  O1  <0> d          -1.868   3.338  -1.215  0.00  0.00    -0.647 OA
ATOM      5  O3  <0> d          -0.412   4.483  -0.203  0.00  0.00    -0.647 OA
ENDBRANCH   2   3
ENDBRANCH   1   2
BRANCH   1   6
ATOM      6  C6  <0> d          -3.478   2.096   0.557  0.00  0.00     0.300 C 
BRANCH   6   7
ATOM      7  C7  <0> d          -3.837   2.676   1.927  0.00  0.00     0.266 C 
BRANCH   7   8
ATOM      8  N8  <0> d          -5.112   3.400   1.834  0.00  0.00    -0.050 N 
ATOM      9  H9  <0> d          -5.055   4.088   1.099  0.00  0.00     0.281 HD
BRANCH   8  10
ATOM     10  C10 <0> d          -6.192   2.451   1.534  0.00  0.00     0.348 C 
BRANCH  10  11
ATOM     11  C11 <0> d          -7.478   3.207   1.317  0.00  0.00     0.199 C 
ATOM     12  O12 <0> d          -7.493   4.423   1.405  0.00  0.00    -0.647 OA
ATOM     13  O13 <0> d          -8.504   2.602   1.054  0.00  0.00    -0.647 OA
ENDBRANCH  10  11
ENDBRANCH   8  10
BRANCH   8  14
ATOM     14  C14 <0> d          -5.389   4.069   3.112  0.00  0.00     0.348 C 
BRANCH  14  15
ATOM     15  C15 <0> d          -4.372   5.159   3.338  0.00  0.00     0.199 C 
ATOM     16  O16 <0> d          -3.569   5.435   2.464  0.00  0.00    -0.647 OA
ATOM     17  O17 <0> d          -4.354   5.764   4.396  0.00  0.00    -0.647 OA
ENDBRANCH  14  15
ENDBRANCH   8  14
ENDBRANCH   7   8
ENDBRANCH   6   7
ENDBRANCH   1   6
BRANCH   1  18
ATOM     18  C18 <0> d          -1.868   0.706  -0.598  0.00  0.00     0.300 C 
BRANCH  18  19
ATOM     19  C19 <0> d          -0.694  -0.242  -0.344  0.00  0.00     0.266 C 
BRANCH  19  20
ATOM     20  N20 <0> d          -0.349  -0.940  -1.590  0.00  0.00    -0.050 N 
ATOM     21  H21 <0> d          -1.171  -1.389  -1.962  0.00  0.00     0.281 HD
BRANCH  20  22
ATOM     22  C22 <0> d           0.165   0.029  -2.567  0.00  0.00     0.348 C 
BRANCH  22  23
ATOM     23  C23 <0> d           0.404  -0.664  -3.884  0.00  0.00     0.199 C 
ATOM     24  O24 <0> d           0.168  -1.855  -3.997  0.00  0.00    -0.647 OA
ATOM     25  O25 <0> d           0.833  -0.034  -4.835  0.00  0.00    -0.647 OA
ENDBRANCH  22  23
ENDBRANCH  20  22
BRANCH  20  26
ATOM     26  C26 <0> d           0.681  -1.951  -1.315  0.00  0.00     0.348 C 
BRANCH  26  27
ATOM     27  C27 <0> d           0.100  -3.036  -0.445  0.00  0.00     0.199 C 
ATOM     28  O28 <0> d          -1.090  -3.033  -0.180  0.00  0.00    -0.647 OA
ATOM     29  O29 <0> d           0.820  -3.917  -0.007  0.00  0.00    -0.647 OA
ENDBRANCH  26  27
ENDBRANCH  20  26
ENDBRANCH  19  20
ENDBRANCH  18  19
ENDBRANCH   1  18
TORSDOF 16
