REMARK  14 active torsions:
REMARK  status: ('A' for Active; 'I' for Inactive)
REMARK    1  A    between atoms: C2_2  and  C3_3 
REMARK    2  A    between atoms: C3_3  and  C4_4 
REMARK    3  A    between atoms: C4_4  and  S5_5 
REMARK    4  A    between atoms: S5_5  and  N8_8 
REMARK    5  A    between atoms: N8_8  and  C9_9 
REMARK    6  A    between atoms: C9_9  and  C11_10 
REMARK    7  A    between atoms: C9_9  and  C31_30 
REMARK    8  A    between atoms: C11_10  and  C12_11 
REMARK    9  A    between atoms: C15_14  and  O16_15 
REMARK   10  A    between atoms: O16_15  and  C17_16 
REMARK   11  A    between atoms: C17_16  and  C18_17 
REMARK   12  A    between atoms: C18_17  and  C19_18 
REMARK   13  A    between atoms: C19_18  and  C20_19 
REMARK   14  A    between atoms: C20_19  and  C21_20 
ROOT
ATOM      1  C12 ZIN AC000       3.898  -6.054   2.997  0.00  0.00    -0.056 A 
ATOM      2  C13 ZIN AC000       5.219  -5.897   2.621  0.00  0.00     0.010 A 
ATOM      3  C14 ZIN AC000       6.189  -5.672   3.579  0.00  0.00     0.037 A 
ATOM      4  C15 ZIN AC000       5.836  -5.605   4.919  0.00  0.00     0.068 A 
ATOM      5  C29 ZIN AC000       4.510  -5.763   5.294  0.00  0.00     0.037 A 
ATOM      6  C30 ZIN AC000       3.543  -5.982   4.332  0.00  0.00     0.010 A 
ENDROOT
BRANCH   1   7
ATOM      7  C11 ZIN AC000       2.842  -6.299   1.950  0.00  0.00     0.075 C 
BRANCH   7   8
ATOM      8  C9  ZIN AC000       2.284  -4.959   1.466  0.00  0.00     0.197 C 
BRANCH   8   9
ATOM      9  N8  ZIN AC000       1.589  -4.291   2.569  0.00  0.00    -0.304 N 
ATOM     10  H43 ZIN AC000       1.098  -4.816   3.221  0.00  0.00     0.173 HD
BRANCH   9  11
ATOM     11  S5  ZIN AC000       1.640  -2.642   2.703  0.00  0.00     0.227 S 
ATOM     12  O6  ZIN AC000       3.023  -2.326   2.621  0.00  0.00    -0.206 OA
ATOM     13  O7  ZIN AC000       0.893  -2.362   3.879  0.00  0.00    -0.206 OA
BRANCH  11  14
ATOM     14  C4  ZIN AC000       0.763  -2.041   1.233  0.00  0.00     0.163 C 
BRANCH  14  15
ATOM     15  C3  ZIN AC000       0.742  -0.511   1.242  0.00  0.00     0.016 C 
BRANCH  15  16
ATOM     16  C2  ZIN AC000       0.002  -0.004   0.002  0.00  0.00    -0.004 C 
ATOM     17  C1  ZIN AC000      -0.019   1.526   0.010  0.00  0.00     0.005 C 
ENDBRANCH  15  16
ENDBRANCH  14  15
ENDBRANCH  11  14
ENDBRANCH   9  11
ENDBRANCH   8   9
BRANCH   8  18
ATOM     18  C31 ZIN AC000       1.318  -5.197   0.334  0.00  0.00     0.197 C 
ATOM     19  O32 ZIN AC000       0.157  -4.842   0.439  0.00  0.00    -0.646 OA
ATOM     20  O33 ZIN AC000       1.698  -5.744  -0.687  0.00  0.00    -0.646 OA
ENDBRANCH   8  18
ENDBRANCH   7   8
ENDBRANCH   1   7
BRANCH   4  21
ATOM     21  O16 ZIN AC000       6.788  -5.384   5.863  0.00  0.00    -0.351 OA
BRANCH  21  22
ATOM     22  C17 ZIN AC000       6.353  -5.326   7.223  0.00  0.00     0.175 C 
BRANCH  22  23
ATOM     23  C18 ZIN AC000       7.556  -5.072   8.134  0.00  0.00     0.027 C 
BRANCH  23  24
ATOM     24  C19 ZIN AC000       7.089  -5.011   9.589  0.00  0.00     0.002 C 
BRANCH  24  25
ATOM     25  C20 ZIN AC000       8.292  -4.756  10.500  0.00  0.00     0.005 C 
BRANCH  25  26
ATOM     26  C21 ZIN AC000       7.826  -4.695  11.956  0.00  0.00    -0.011 C 
ATOM     27  C28 ZIN AC000       9.005  -4.317  12.856  0.00  0.00     0.032 C 
ATOM     28  C27 ZIN AC000       8.551  -4.335  14.317  0.00  0.00     0.232 C 
ATOM     29  N24 ZIN AC000       8.076  -5.678  14.669  0.00  0.00    -0.075 N 
ATOM     30  C23 ZIN AC000       6.900  -6.018  13.859  0.00  0.00     0.232 C 
ATOM     31  H25 ZIN AC000       7.827  -5.701  15.647  0.00  0.00     0.277 HD
ATOM     32  H26 ZIN AC000       8.809  -6.349  14.494  0.00  0.00     0.277 HD
ATOM     33  C22 ZIN AC000       7.290  -6.065  12.381  0.00  0.00     0.032 C 
ENDBRANCH  25  26
ENDBRANCH  24  25
ENDBRANCH  23  24
ENDBRANCH  22  23
ENDBRANCH  21  22
ENDBRANCH   4  21
TORSDOF 14
