REMARK  7 active torsions:
REMARK  status: ('A' for Active; 'I' for Inactive)
REMARK    1  A    between atoms: C2_2  and  N4_4 
REMARK    2  A    between atoms: N4_4  and  C7_7 
REMARK    3  A    between atoms: C7_7  and  C8_8 
REMARK    4  A    between atoms: C8_8  and  O10_9 
REMARK    5  A    between atoms: C8_8  and  C11_10 
REMARK    6  A    between atoms: C14_13  and  N15_14 
REMARK    7  A    between atoms: N15_14  and  S16_15 
ROOT
ATOM      1  C11 <0> d          -0.110  -0.420   4.895  0.00  0.00    -0.028 A 
ATOM      2  C12 <0> d          -0.064   0.834   5.475  0.00  0.00     0.012 A 
ATOM      3  C13 <0> d          -0.831   1.110   6.590  0.00  0.00     0.031 A 
ATOM      4  C14 <0> d          -1.649   0.125   7.129  0.00  0.00     0.042 A 
ATOM      5  C20 <0> d          -1.692  -1.134   6.544  0.00  0.00     0.031 A 
ATOM      6  C21 <0> d          -0.927  -1.401   5.426  0.00  0.00     0.012 A 
ENDROOT
BRANCH   1   7
ATOM      7  C8  <0> d           0.729  -0.718   3.679  0.00  0.00     0.176 C 
BRANCH   7   8
ATOM      8  C7  <0> d           0.040  -0.153   2.435  0.00  0.00     0.269 C 
BRANCH   8   9
ATOM      9  N4  <0> d           0.795  -0.545   1.237  0.00  0.00    -0.069 N 
ATOM     10  H5  <0> d           0.828  -1.552   1.175  0.00  0.00     0.277 HD
ATOM     11  H6  <0> d           1.734  -0.181   1.296  0.00  0.00     0.277 HD
BRANCH   9  12
ATOM     12  C2  <0> d           0.134  -0.003   0.042  0.00  0.00     0.178 C 
ATOM     13  C1  <0> d           0.194   1.526   0.076  0.00  0.00     0.039 C 
ATOM     14  C3  <0> d           0.847  -0.514  -1.211  0.00  0.00     0.039 C 
ENDBRANCH   9  12
ENDBRANCH   8   9
ENDBRANCH   7   8
BRANCH   7  15
ATOM     15  O10 <0> d           2.015  -0.113   3.827  0.00  0.00    -0.389 OA
ATOM     16  H31 <0> d           1.989   0.848   3.928  0.00  0.00     0.210 HD
ENDBRANCH   7  15
ENDBRANCH   1   7
BRANCH   4  17
ATOM     17  N15 <0> d          -2.426   0.401   8.256  0.00  0.00    -0.285 N 
ATOM     18  H34 <0> d          -2.033   0.858   9.016  0.00  0.00     0.178 HD
BRANCH  17  19
ATOM     19  S16 <0> d          -4.018  -0.052   8.295  0.00  0.00     0.227 S 
ATOM     20  C17 <0> d          -4.781   0.854   6.921  0.00  0.00     0.186 C 
ATOM     21  O18 <0> d          -3.993  -1.446   8.020  0.00  0.00    -0.206 OA
ATOM     22  O19 <0> d          -4.492   0.440   9.541  0.00  0.00    -0.206 OA
ENDBRANCH  17  19
ENDBRANCH   4  17
TORSDOF 7
