REMARK  2 active torsions:
REMARK  status: ('A' for Active; 'I' for Inactive)
REMARK    1  A    between atoms: C2_2  and  C4_4 
REMARK    2  A    between atoms: C7_6  and  C8_7 
ROOT
ATOM      1  C4  <0> d          -1.150   1.858  -0.123  0.00  0.00     0.301 C 
ATOM      2  N6  <0> d          -1.012   3.154  -0.787  0.00  0.00    -0.262 NA
ATOM      3  C7  <0> d          -0.296   4.099  -0.289  0.00  0.00     0.075 C 
ATOM      4  C14 <0> d           0.462   4.008   0.969  0.00  0.00     0.021 A 
ATOM      5  C15 <0> d           1.739   4.587   1.002  0.00  0.00     0.040 A 
ATOM      6  C16 <0> d           2.502   4.534   2.147  0.00  0.00     0.035 A 
ATOM      7 Cl17 <0> d           4.080   5.255   2.173  0.00  0.00    -0.084 Cl
ATOM      8  C18 <0> d           2.008   3.906   3.279  0.00  0.00     0.026 A 
ATOM      9  C19 <0> d           0.755   3.334   3.262  0.00  0.00     0.032 A 
ATOM     10  C20 <0> d          -0.032   3.379   2.110  0.00  0.00     0.047 A 
ATOM     11  N21 <0> d          -1.285   2.786   2.171  0.00  0.00    -0.324 N 
ATOM     12  C22 <0> d          -1.837   2.058   1.201  0.00  0.00     0.257 C 
ATOM     13  O23 <0> d          -2.921   1.548   1.390  0.00  0.00    -0.270 OA
ATOM     14  H32 <0> d          -1.799   2.911   2.984  0.00  0.00     0.169 HD
ENDROOT
BRANCH   3  15
ATOM     15  C8  <0> d          -0.229   5.375  -1.039  0.00  0.00    -0.007 A 
ATOM     16  C13 <0> d           0.085   6.561  -0.376  0.00  0.00     0.014 A 
ATOM     17  C12 <0> d           0.151   7.745  -1.080  0.00  0.00     0.001 A 
ATOM     18  C11 <0> d          -0.104   7.760  -2.440  0.00  0.00     0.000 A 
ATOM     19  C10 <0> d          -0.422   6.588  -3.102  0.00  0.00     0.001 A 
ATOM     20  C9  <0> d          -0.486   5.396  -2.410  0.00  0.00     0.014 A 
ENDBRANCH   3  15
BRANCH   1  21
ATOM     21  C2  <0> d           0.214   1.258   0.102  0.00  0.00     0.208 C 
ATOM     22  O1  <0> d           0.351   0.046   0.119  0.00  0.00    -0.646 OA
ATOM     23  O3  <0> d           1.180   1.983   0.261  0.00  0.00    -0.646 OA
ENDBRANCH   1  21
TORSDOF 2
