REMARK  3 active torsions:
REMARK  status: ('A' for Active; 'I' for Inactive)
REMARK    1  A    between atoms: C2_2  and  O3_3 
REMARK    2  A    between atoms: C2_2  and  P4_4 
REMARK    3  A    between atoms: C2_2  and  P8_8 
ROOT
ATOM      1  C1  ZIN AC000      -0.019   1.526   0.010  0.00  0.00     0.077 C 
ATOM      2  C2  ZIN AC000       0.002  -0.004   0.002  0.00  0.00     0.281 C 
ENDROOT
BRANCH   2   3
ATOM      3  O3  ZIN AC000       0.693  -0.477   1.160  0.00  0.00    -0.365 OA
ATOM      4  H15 ZIN AC000       0.745  -1.441   1.220  0.00  0.00     0.212 HD
ENDBRANCH   2   3
BRANCH   2   5
ATOM      5  P4  ZIN AC000      -1.708  -0.635   0.015  0.00  0.00     0.309 P 
ATOM      6  O5  ZIN AC000      -2.401  -0.237   1.363  0.00  0.00    -0.637 OA
ATOM      7  O6  ZIN AC000      -2.503  -0.015  -1.184  0.00  0.00    -0.637 OA
ATOM      8  O7  ZIN AC000      -1.690  -2.196  -0.122  0.00  0.00    -0.637 OA
ENDBRANCH   2   5
BRANCH   2   9
ATOM      9  P8  ZIN AC000       0.855  -0.592  -1.498  0.00  0.00     0.309 P 
ATOM     10  O9  ZIN AC000       0.098  -0.073  -2.767  0.00  0.00    -0.637 OA
ATOM     11  O10 ZIN AC000       2.325  -0.050  -1.509  0.00  0.00    -0.637 OA
ATOM     12  O11 ZIN AC000       0.877  -2.159  -1.506  0.00  0.00    -0.637 OA
ENDBRANCH   2   9
TORSDOF 3
