REMARK  6 active torsions:
REMARK  status: ('A' for Active; 'I' for Inactive)
REMARK    1  A    between atoms: N1_1  and  S2_2 
REMARK    2  A    between atoms: S2_2  and  C5_5 
REMARK    3  A    between atoms: C7_7  and  C8_8 
REMARK    4  A    between atoms: C11_11  and  N12_12 
REMARK    5  A    between atoms: N12_12  and  C13_13 
REMARK    6  A    between atoms: C13_13  and  C14_14 
ROOT
ATOM      1  C5  ZIN AC000      -0.989  -0.494  -1.389  0.00  0.00     0.102 A 
ATOM      2  C6  ZIN AC000      -0.173  -1.130  -2.296  0.00  0.00     0.047 A 
ATOM      3  C7  ZIN AC000      -0.699  -1.583  -3.511  0.00  0.00     0.068 A 
ATOM      4  C11 ZIN AC000      -2.062  -1.383  -3.795  0.00  0.00     0.047 A 
ATOM      5  C19 ZIN AC000      -2.869  -0.739  -2.866  0.00  0.00     0.055 A 
ATOM      6  C20 ZIN AC000      -2.335  -0.303  -1.669  0.00  0.00     0.059 A 
ATOM      7 Cl21 ZIN AC000      -3.350   0.501  -0.514  0.00  0.00    -0.083 Cl
ENDROOT
BRANCH   4   8
ATOM      8  N12 ZIN AC000      -2.597  -1.828  -4.995  0.00  0.00    -0.383 N 
ATOM      9  H25 ZIN AC000      -2.053  -2.351  -5.604  0.00  0.00     0.160 HD
BRANCH   8  10
ATOM     10  C13 ZIN AC000      -3.984  -1.507  -5.341  0.00  0.00     0.184 C 
BRANCH  10  11
ATOM     11  C14 ZIN AC000      -4.316  -2.102  -6.686  0.00  0.00     0.070 A 
ATOM     12  O18 ZIN AC000      -4.156  -1.497  -7.874  0.00  0.00    -0.325 OA
ATOM     13  C17 ZIN AC000      -4.552  -2.325  -8.855  0.00  0.00     0.142 A 
ATOM     14  C16 ZIN AC000      -4.981  -3.471  -8.296  0.00  0.00     0.027 A 
ATOM     15  C15 ZIN AC000      -4.829  -3.328  -6.898  0.00  0.00     0.036 A 
ENDBRANCH  10  11
ENDBRANCH   8  10
ENDBRANCH   4   8
BRANCH   3  16
ATOM     16  C8  ZIN AC000       0.166  -2.264  -4.485  0.00  0.00     0.211 C 
ATOM     17  O9  ZIN AC000       1.371  -2.338  -4.286  0.00  0.00    -0.644 OA
ATOM     18  O10 ZIN AC000      -0.318  -2.758  -5.494  0.00  0.00    -0.644 OA
ENDBRANCH   3  16
BRANCH   1  19
ATOM     19  S2  ZIN AC000      -0.322   0.075   0.139  0.00  0.00     0.258 S 
ATOM     20  O3  ZIN AC000       1.065  -0.233   0.112  0.00  0.00    -0.201 OA
ATOM     21  O4  ZIN AC000      -1.201  -0.386   1.156  0.00  0.00    -0.201 OA
BRANCH  19  22
ATOM     22  N1  ZIN AC000      -0.435   1.728   0.138  0.00  0.00    -0.324 N 
ATOM     23  H22 ZIN AC000       0.367   2.268   0.215  0.00  0.00     0.169 HD
ATOM     24  H23 ZIN AC000      -1.302   2.155   0.056  0.00  0.00     0.169 HD
ENDBRANCH  19  22
ENDBRANCH   1  19
TORSDOF 6
