REMARK  7 active torsions:
REMARK  status: ('A' for Active; 'I' for Inactive)
REMARK    1  A    between atoms: C2_2  and  O4_4 
REMARK    2  A    between atoms: O4_4  and  C5_5 
REMARK    3  A    between atoms: C8_8  and  C9_9 
REMARK    4  A    between atoms: C9_9  and  C10_10 
REMARK    5  A    between atoms: C9_9  and  C20_20 
REMARK    6  A    between atoms: C13_13  and  O14_14 
REMARK    7  A    between atoms: O14_14  and  C15_15 
ROOT
ATOM      1  C9  ZIN AC000      -1.179  -6.320  -0.157  0.00  0.00     0.103 C 
ENDROOT
BRANCH   1   2
ATOM      2  C8  ZIN AC000      -1.040  -4.820  -0.193  0.00  0.00    -0.044 A 
ATOM      3  C7  ZIN AC000       0.217  -4.244  -0.214  0.00  0.00     0.011 A 
ATOM      4  C6  ZIN AC000       0.348  -2.870  -0.247  0.00  0.00     0.038 A 
ATOM      5  C5  ZIN AC000      -0.783  -2.066  -0.258  0.00  0.00     0.079 A 
ATOM      6  C27 ZIN AC000      -2.043  -2.646  -0.231  0.00  0.00     0.038 A 
ATOM      7  C26 ZIN AC000      -2.168  -4.022  -0.204  0.00  0.00     0.011 A 
BRANCH   5   8
ATOM      8  O4  ZIN AC000      -0.657  -0.713  -0.290  0.00  0.00    -0.279 OA
BRANCH   8   9
ATOM      9  C2  ZIN AC000      -0.311  -0.161  -1.464  0.00  0.00     0.260 C 
ATOM     10  C1  ZIN AC000      -0.262   1.338  -1.607  0.00  0.00     0.126 C 
ATOM     11  O3  ZIN AC000      -0.040  -0.867  -2.407  0.00  0.00    -0.265 OA
ENDBRANCH   8   9
ENDBRANCH   5   8
ENDBRANCH   1   2
BRANCH   1  12
ATOM     12  C10 ZIN AC000      -2.030  -6.718   1.022  0.00  0.00    -0.044 A 
ATOM     13  C19 ZIN AC000      -1.985  -5.974   2.187  0.00  0.00     0.011 A 
ATOM     14  C18 ZIN AC000      -2.767  -6.333   3.268  0.00  0.00     0.038 A 
ATOM     15  C13 ZIN AC000      -3.591  -7.447   3.187  0.00  0.00     0.079 A 
ATOM     16  C12 ZIN AC000      -3.630  -8.194   2.018  0.00  0.00     0.038 A 
ATOM     17  C11 ZIN AC000      -2.849  -7.828   0.939  0.00  0.00     0.011 A 
BRANCH  15  18
ATOM     18  O14 ZIN AC000      -4.357  -7.806   4.250  0.00  0.00    -0.279 OA
BRANCH  18  19
ATOM     19  C15 ZIN AC000      -5.452  -7.066   4.489  0.00  0.00     0.260 C 
ATOM     20  C16 ZIN AC000      -6.286  -7.330   5.716  0.00  0.00     0.126 C 
ATOM     21  O17 ZIN AC000      -5.768  -6.189   3.721  0.00  0.00    -0.265 OA
ENDBRANCH  18  19
ENDBRANCH  15  18
ENDBRANCH   1  12
BRANCH   1  22
ATOM     22  C20 ZIN AC000      -1.832  -6.794  -1.430  0.00  0.00     0.047 A 
ATOM     23  N25 ZIN AC000      -1.083  -7.229  -2.424  0.00  0.00    -0.265 NA
ATOM     24  C24 ZIN AC000      -1.610  -7.657  -3.554  0.00  0.00     0.117 A 
ATOM     25  C23 ZIN AC000      -2.980  -7.656  -3.740  0.00  0.00     0.019 A 
ATOM     26  C22 ZIN AC000      -3.800  -7.202  -2.719  0.00  0.00     0.003 A 
ATOM     27  C21 ZIN AC000      -3.209  -6.764  -1.543  0.00  0.00     0.028 A 
ENDBRANCH   1  22
TORSDOF 7
