REMARK  20 active torsions:
REMARK  status: ('A' for Active; 'I' for Inactive)
REMARK    1  A    between atoms: C2_2  and  C3_3 
REMARK    2  A    between atoms: C3_3  and  C4_4 
REMARK    3  A    between atoms: C4_4  and  C5_5 
REMARK    4  A    between atoms: C5_5  and  C6_6 
REMARK    5  A    between atoms: C6_6  and  C7_7 
REMARK    6  A    between atoms: C7_7  and  C8_8 
REMARK    7  A    between atoms: C8_8  and  C9_9 
REMARK    8  A    between atoms: C9_9  and  C10_10 
REMARK    9  A    between atoms: C10_10  and  C11_11 
REMARK   10  A    between atoms: C11_11  and  C12_12 
REMARK   11  A    between atoms: C12_12  and  C13_13 
REMARK   12  A    between atoms: C13_13  and  C14_14 
REMARK   13  A    between atoms: C14_14  and  C15_15 
REMARK   14  A    between atoms: C15_15  and  C16_16 
REMARK   15  A    between atoms: C16_16  and  O17_17 
REMARK   16  A    between atoms: O17_17  and  P18_18 
REMARK   17  A    between atoms: P18_18  and  O21_21 
REMARK   18  A    between atoms: O21_21  and  C22_22 
REMARK   19  A    between atoms: C22_22  and  C23_23 
REMARK   20  A    between atoms: C23_23  and  N24_24 
ROOT
ATOM      1  C14 ZIN AC000       4.551 -13.230   6.685  0.00  0.00     0.002 C 
ENDROOT
BRANCH   1   2
ATOM      2  C13 ZIN AC000       4.422 -11.717   6.494  0.00  0.00     0.000 C 
BRANCH   2   3
ATOM      3  C12 ZIN AC000       3.699 -11.429   5.177  0.00  0.00     0.000 C 
BRANCH   3   4
ATOM      4  C11 ZIN AC000       3.570  -9.916   4.987  0.00  0.00     0.000 C 
BRANCH   4   5
ATOM      5  C10 ZIN AC000       2.846  -9.628   3.670  0.00  0.00     0.000 C 
BRANCH   5   6
ATOM      6  C9  ZIN AC000       2.717  -8.116   3.479  0.00  0.00     0.000 C 
BRANCH   6   7
ATOM      7  C8  ZIN AC000       1.994  -7.827   2.162  0.00  0.00     0.000 C 
BRANCH   7   8
ATOM      8  C7  ZIN AC000       1.865  -6.315   1.972  0.00  0.00     0.000 C 
BRANCH   8   9
ATOM      9  C6  ZIN AC000       1.142  -6.027   0.655  0.00  0.00     0.000 C 
BRANCH   9  10
ATOM     10  C5  ZIN AC000       1.013  -4.514   0.464  0.00  0.00     0.000 C 
BRANCH  10  11
ATOM     11  C4  ZIN AC000       0.289  -4.226  -0.853  0.00  0.00     0.000 C 
BRANCH  11  12
ATOM     12  C3  ZIN AC000       0.160  -2.713  -1.044  0.00  0.00    -0.000 C 
BRANCH  12  13
ATOM     13  C2  ZIN AC000      -0.563  -2.425  -2.361  0.00  0.00    -0.005 C 
ATOM     14  C1  ZIN AC000      -0.692  -0.912  -2.551  0.00  0.00     0.005 C 
ENDBRANCH  12  13
ENDBRANCH  11  12
ENDBRANCH  10  11
ENDBRANCH   9  10
ENDBRANCH   8   9
ENDBRANCH   7   8
ENDBRANCH   6   7
ENDBRANCH   5   6
ENDBRANCH   4   5
ENDBRANCH   3   4
ENDBRANCH   2   3
ENDBRANCH   1   2
BRANCH   1  15
ATOM     15  C15 ZIN AC000       5.274 -13.518   8.002  0.00  0.00     0.027 C 
BRANCH  15  16
ATOM     16  C16 ZIN AC000       5.403 -15.031   8.193  0.00  0.00     0.181 C 
BRANCH  16  17
ATOM     17  O17 ZIN AC000       6.079 -15.300   9.423  0.00  0.00    -0.290 OA
BRANCH  17  18
ATOM     18  P18 ZIN AC000       6.389 -16.791   9.945  0.00  0.00     0.408 P 
ATOM     19  O19 ZIN AC000       7.168 -17.566   8.859  0.00  0.00    -0.624 OA
ATOM     20  O20 ZIN AC000       5.059 -17.519  10.242  0.00  0.00    -0.624 OA
BRANCH  18  21
ATOM     21  O21 ZIN AC000       7.272 -16.716  11.289  0.00  0.00    -0.288 OA
BRANCH  21  22
ATOM     22  C22 ZIN AC000       7.798 -17.875  11.940  0.00  0.00     0.209 C 
BRANCH  22  23
ATOM     23  C23 ZIN AC000       8.584 -17.449  13.181  0.00  0.00     0.262 C 
BRANCH  23  24
ATOM     24  N24 ZIN AC000       7.664 -16.871  14.170  0.00  0.00    -0.077 N 
ATOM     25  C25 ZIN AC000       6.581 -17.824  14.447  0.00  0.00     0.271 C 
ATOM     26  C26 ZIN AC000       8.395 -16.585  15.411  0.00  0.00     0.271 C 
ATOM     27  C27 ZIN AC000       7.095 -15.625  13.639  0.00  0.00     0.271 C 
ENDBRANCH  23  24
ENDBRANCH  22  23
ENDBRANCH  21  22
ENDBRANCH  18  21
ENDBRANCH  17  18
ENDBRANCH  16  17
ENDBRANCH  15  16
ENDBRANCH   1  15
TORSDOF 20
