REMARK  8 active torsions:
REMARK  status: ('A' for Active; 'I' for Inactive)
REMARK    1  A    between atoms: C2_2  and  N5_5 
REMARK    2  A    between atoms: N5_5  and  C8_8 
REMARK    3  A    between atoms: C8_8  and  C9_9 
REMARK    4  A    between atoms: C9_9  and  O11_10 
REMARK    5  A    between atoms: C9_9  and  C12_11 
REMARK    6  A    between atoms: C15_14  and  O16_15 
REMARK    7  A    between atoms: C17_16  and  C18_17 
REMARK    8  A    between atoms: C18_17  and  O19_18 
ROOT
ATOM      1  C12 ZIN AC000       4.231  -0.045  -2.427  0.00  0.00    -0.027 A 
ATOM      2  C13 ZIN AC000       4.588   1.247  -2.765  0.00  0.00     0.012 A 
ATOM      3  C14 ZIN AC000       5.914   1.633  -2.721  0.00  0.00     0.038 A 
ATOM      4  C15 ZIN AC000       6.887   0.723  -2.337  0.00  0.00     0.074 A 
ATOM      5  C17 ZIN AC000       6.527  -0.573  -1.998  0.00  0.00    -0.001 A 
ATOM      6  C20 ZIN AC000       5.199  -0.953  -2.038  0.00  0.00     0.022 A 
ENDROOT
BRANCH   1   7
ATOM      7  C9  ZIN AC000       2.784  -0.463  -2.476  0.00  0.00     0.176 C 
BRANCH   7   8
ATOM      8  C8  ZIN AC000       2.068   0.031  -1.217  0.00  0.00     0.269 C 
BRANCH   8   9
ATOM      9  N5  ZIN AC000       0.690  -0.478  -1.207  0.00  0.00    -0.065 N 
ATOM     10  H6  ZIN AC000       0.703  -1.487  -1.212  0.00  0.00     0.278 HD
ATOM     11  H7  ZIN AC000       0.202  -0.144  -2.024  0.00  0.00     0.278 HD
BRANCH   9  12
ATOM     12  C2  ZIN AC000       0.002  -0.004   0.002  0.00  0.00     0.115 C 
ATOM     13  C1  ZIN AC000      -0.019   1.526   0.010  0.00  0.00     0.045 C 
ATOM     14  C3  ZIN AC000       0.742  -0.511   1.242  0.00  0.00     0.045 C 
ATOM     15  C4  ZIN AC000      -1.433  -0.534   0.013  0.00  0.00     0.045 C 
ENDBRANCH   9  12
ENDBRANCH   8   9
ENDBRANCH   7   8
BRANCH   7  16
ATOM     16  O11 ZIN AC000       2.163   0.105  -3.631  0.00  0.00    -0.389 OA
ATOM     17  H32 ZIN AC000       2.181   1.072  -3.652  0.00  0.00     0.210 HD
ENDBRANCH   7  16
ENDBRANCH   1   7
BRANCH   5  18
ATOM     18  C18 ZIN AC000       7.582  -1.565  -1.579  0.00  0.00     0.205 C 
BRANCH  18  19
ATOM     19  O19 ZIN AC000       6.965  -2.819  -1.283  0.00  0.00    -0.396 OA
ATOM     20  H38 ZIN AC000       7.587  -3.507  -1.006  0.00  0.00     0.209 HD
ENDBRANCH  18  19
ENDBRANCH   5  18
BRANCH   4  21
ATOM     21  O16 ZIN AC000       8.192   1.100  -2.292  0.00  0.00    -0.360 OA
ATOM     22  H35 ZIN AC000       8.469   1.457  -1.437  0.00  0.00     0.217 HD
ENDBRANCH   4  21
TORSDOF 8
