REMARK  3 active torsions:
REMARK  status: ('A' for Active; 'I' for Inactive)
REMARK    1  A    between atoms: C3_3  and  O4_4 
REMARK    2  A    between atoms: N16_14  and  O17_15 
REMARK    3  A    between atoms: C26_22  and  C27_23 
ROOT
ATOM      1  C1  ZIN AC000       0.721  -1.335  -0.023  0.00  0.00     0.015 C 
ATOM      2  C2  ZIN AC000       0.559  -0.174  -0.072  0.00  0.00    -0.078 C 
ATOM      3  C3  ZIN AC000       0.356   1.283  -0.134  0.00  0.00     0.128 C 
ATOM      4  C5  ZIN AC000      -0.129   1.698  -1.545  0.00  0.00     0.052 C 
ATOM      5  C6  ZIN AC000       0.990   2.590  -2.148  0.00  0.00     0.010 C 
ATOM      6  C7  ZIN AC000       2.237   2.145  -1.377  0.00  0.00     0.002 C 
ATOM      7  C9  ZIN AC000       3.384   3.139  -1.344  0.00  0.00    -0.005 C 
ATOM      8  C11 ZIN AC000       3.922   3.353  -2.762  0.00  0.00     0.010 C 
ATOM      9  C12 ZIN AC000       5.030   4.408  -2.724  0.00  0.00     0.035 C 
ATOM     10  C13 ZIN AC000       6.088   3.971  -1.728  0.00  0.00    -0.073 C 
ATOM     11  C14 ZIN AC000       7.357   4.011  -2.119  0.00  0.00     0.032 C 
ATOM     12  C15 ZIN AC000       8.428   3.613  -1.189  0.00  0.00     0.061 C 
ATOM     13  N16 ZIN AC000       9.597   3.247  -1.611  0.00  0.00    -0.141 NA
ATOM     14  C18 ZIN AC000       8.089   3.654   0.288  0.00  0.00     0.062 C 
ATOM     15  C19 ZIN AC000       6.763   2.917   0.473  0.00  0.00     0.015 C 
ATOM     16  C20 ZIN AC000       5.655   3.533  -0.363  0.00  0.00     0.019 C 
ATOM     17  C22 ZIN AC000       4.489   2.543  -0.461  0.00  0.00    -0.002 C 
ATOM     18  C24 ZIN AC000       3.993   2.214   0.945  0.00  0.00     0.006 C 
ATOM     19  C25 ZIN AC000       2.745   1.317   0.912  0.00  0.00     0.014 C 
ATOM     20  C26 ZIN AC000       1.682   2.010   0.067  0.00  0.00     0.006 C 
ENDROOT
BRANCH   3  21
ATOM     21  O4  ZIN AC000      -0.588   1.693   0.857  0.00  0.00    -0.377 OA
ATOM     22  H30 ZIN AC000      -1.457   1.278   0.768  0.00  0.00     0.211 HD
ENDBRANCH   3  21
BRANCH  20  23
ATOM     23  C27 ZIN AC000       1.434   3.422   0.601  0.00  0.00     0.009 C 
ATOM     24  C28 ZIN AC000       1.072   3.350   2.085  0.00  0.00     0.006 C 
ENDBRANCH  20  23
BRANCH  13  25
ATOM     25  O17 ZIN AC000       9.873   3.223  -2.999  0.00  0.00    -0.266 OA
ATOM     26  H40 ZIN AC000      10.771   2.937  -3.217  0.00  0.00     0.247 HD
ENDBRANCH  13  25
TORSDOF 3
