REMARK  6 active torsions:
REMARK  status: ('A' for Active; 'I' for Inactive)
REMARK    1  A    between atoms: C5_5  and  C6_6 
REMARK    2  A    between atoms: C6_6  and  S7_7 
REMARK    3  A    between atoms: S7_7  and  C8_8 
REMARK    4  A    between atoms: C8_8  and  C10_9 
REMARK    5  A    between atoms: C8_8  and  C17_16 
REMARK    6  A    between atoms: C10_9  and  N11_10 
ROOT
ATOM      1  C8  ZIN AC000       0.072   8.387   1.601  0.00  0.00     0.100 C 
ENDROOT
BRANCH   1   2
ATOM      2  S7  ZIN AC000      -0.422   6.642   1.576  0.00  0.00    -0.153 SA
BRANCH   2   3
ATOM      3  C6  ZIN AC000      -0.726   6.329  -0.185  0.00  0.00     0.113 C 
BRANCH   3   4
ATOM      4  C5  ZIN AC000      -1.040   4.869  -0.388  0.00  0.00    -0.049 A 
ATOM      5  C4  ZIN AC000      -2.349   4.428  -0.321  0.00  0.00     0.009 A 
ATOM      6  C3  ZIN AC000      -2.638   3.089  -0.508  0.00  0.00     0.024 A 
ATOM      7  C2  ZIN AC000      -1.617   2.191  -0.762  0.00  0.00     0.034 A 
ATOM      8 Cl1  ZIN AC000      -1.979   0.509  -0.997  0.00  0.00    -0.084 Cl
ATOM      9  C26 ZIN AC000      -0.307   2.631  -0.823  0.00  0.00     0.024 A 
ATOM     10  C25 ZIN AC000      -0.020   3.971  -0.642  0.00  0.00     0.009 A 
ENDBRANCH   3   4
ENDBRANCH   2   3
ENDBRANCH   1   2
BRANCH   1  11
ATOM     11  C10 ZIN AC000       1.435   8.541   0.922  0.00  0.00     0.149 C 
BRANCH  11  12
ATOM     12  N11 ZIN AC000       1.770   9.963   0.816  0.00  0.00    -0.350 N 
ATOM     13  C16 ZIN AC000       2.491  10.685   1.701  0.00  0.00     0.182 A 
ATOM     14  N14 ZIN AC000       2.581  11.912   1.266  0.00  0.00    -0.361 N 
ATOM     15  C13 ZIN AC000       1.920  12.018   0.104  0.00  0.00     0.106 A 
ATOM     16  H15 ZIN AC000       3.049  12.633   1.714  0.00  0.00     0.166 HD
ATOM     17  C12 ZIN AC000       1.405  10.811  -0.195  0.00  0.00     0.108 A 
ENDBRANCH  11  12
ENDBRANCH   1  11
BRANCH   1  18
ATOM     18  C17 ZIN AC000       0.165   8.863   3.027  0.00  0.00    -0.021 A 
ATOM     19  C23 ZIN AC000      -0.085  10.189   3.332  0.00  0.00     0.043 A 
ATOM     20  C22 ZIN AC000      -0.005  10.625   4.643  0.00  0.00     0.048 A 
ATOM     21 Cl24 ZIN AC000      -0.511  11.304   2.071  0.00  0.00    -0.084 Cl
ATOM     22  C20 ZIN AC000       0.336   9.736   5.647  0.00  0.00     0.035 A 
ATOM     23  C19 ZIN AC000       0.591   8.411   5.340  0.00  0.00     0.024 A 
ATOM     24 Cl21 ZIN AC000       0.443  10.283   7.291  0.00  0.00    -0.084 Cl
ATOM     25  C18 ZIN AC000       0.506   7.976   4.031  0.00  0.00     0.012 A 
ENDBRANCH   1  18
TORSDOF 6
