REMARK  6 active torsions:
REMARK  status: ('A' for Active; 'I' for Inactive)
REMARK    1  A    between atoms: N1_1  and  C2_2 
REMARK    2  A    between atoms: N6_6  and  C7_7 
REMARK    3  A    between atoms: C10_9  and  C12_10 
REMARK    4  A    between atoms: C12_10  and  O13_11 
REMARK    5  A    between atoms: C14_12  and  O16_13 
REMARK    6  A    between atoms: C17_14  and  O19_15 
ROOT
ATOM      1  C2  <0> d           0.002  -0.004   0.002  0.00  0.00     0.159 A 
ATOM      2  C3  <0> d          -1.196  -0.739   0.004  0.00  0.00     0.149 A 
ATOM      3  N4  <0> d          -2.512  -0.415   0.012  0.00  0.00    -0.236 NA
ATOM      4  C5  <0> d          -3.225  -1.503   0.009  0.00  0.00     0.214 A 
ATOM      5  N6  <0> d          -2.409  -2.595  -0.001  0.00  0.00    -0.294 N 
ATOM      6  C20 <0> d          -1.115  -2.141  -0.004  0.00  0.00     0.170 A 
ATOM      7  N21 <0> d           0.082  -2.720  -0.013  0.00  0.00    -0.182 NA
ATOM      8  C22 <0> d           1.181  -1.990  -0.013  0.00  0.00     0.313 A 
ATOM      9  F23 <0> d           2.378  -2.616  -0.022  0.00  0.00    -0.161 F 
ATOM     10  N24 <0> d           1.153  -0.668  -0.013  0.00  0.00    -0.183 NA
ENDROOT
BRANCH   5  11
ATOM     11  C7  <0> d          -2.837  -3.997  -0.006  0.00  0.00     0.262 C 
ATOM     12  C17 <0> d          -2.920  -4.547   1.440  0.00  0.00     0.198 C 
ATOM     13  C14 <0> d          -3.942  -5.703   1.287  0.00  0.00     0.182 C 
ATOM     14  C10 <0> d          -4.705  -5.365  -0.009  0.00  0.00     0.179 C 
ATOM     15  O9  <0> d          -4.191  -4.113  -0.493  0.00  0.00    -0.353 OA
BRANCH  12  16
ATOM     16  O19 <0> d          -3.411  -3.548   2.336  0.00  0.00    -0.388 OA
ATOM     17  H32 <0> d          -3.569  -3.869   3.235  0.00  0.00     0.210 HD
ENDBRANCH  12  16
BRANCH  13  18
ATOM     18  O16 <0> d          -3.265  -6.954   1.157  0.00  0.00    -0.390 OA
ATOM     19  H31 <0> d          -3.853  -7.705   1.001  0.00  0.00     0.210 HD
ENDBRANCH  13  18
BRANCH  14  20
ATOM     20  C12 <0> d          -6.201  -5.235   0.284  0.00  0.00     0.198 C 
BRANCH  20  21
ATOM     21  O13 <0> d          -6.909  -5.022  -0.940  0.00  0.00    -0.398 OA
ATOM     22  H30 <0> d          -7.865  -4.931  -0.830  0.00  0.00     0.209 HD
ENDBRANCH  20  21
ENDBRANCH  14  20
ENDBRANCH   5  11
BRANCH   1  23
ATOM     23  N1  <0> d          -0.017   1.379   0.010  0.00  0.00    -0.382 N 
ATOM     24  H25 <0> d           0.817   1.876   0.004  0.00  0.00     0.157 HD
ATOM     25  H26 <0> d          -0.863   1.853   0.016  0.00  0.00     0.157 HD
ENDBRANCH   1  23
TORSDOF 6
