REMARK  6 active torsions:
REMARK  status: ('A' for Active; 'I' for Inactive)
REMARK    1  A    between atoms: C2_2  and  N3_3 
REMARK    2  A    between atoms: C5_5  and  C7_6 
REMARK    3  A    between atoms: C7_6  and  C8_7 
REMARK    4  A    between atoms: C8_7  and  N9_8 
REMARK    5  A    between atoms: C16_15  and  C17_16 
REMARK    6  A    between atoms: C16_15  and  C23_22 
ROOT
ATOM      1  N3  ZIN AC000       0.659  -0.518   1.284  0.00  0.00    -0.351 N 
ATOM      2  C4  ZIN AC000       2.086  -0.862   1.287  0.00  0.00     0.132 C 
ATOM      3  C5  ZIN AC000       2.321  -1.633   2.605  0.00  0.00     0.032 C 
ATOM      4  C16 ZIN AC000       1.182  -1.088   3.497  0.00  0.00     0.100 C 
ATOM      5  C29 ZIN AC000       0.129  -0.626   2.515  0.00  0.00     0.238 C 
ATOM      6  O30 ZIN AC000      -1.028  -0.393   2.795  0.00  0.00    -0.272 OA
ENDROOT
BRANCH   4   7
ATOM      7  C17 ZIN AC000       0.639  -2.179   4.384  0.00  0.00    -0.035 A 
ATOM      8  C22 ZIN AC000      -0.649  -2.645   4.197  0.00  0.00     0.009 A 
ATOM      9  C21 ZIN AC000      -1.145  -3.648   5.008  0.00  0.00     0.001 A 
ATOM     10  C20 ZIN AC000      -0.357  -4.180   6.012  0.00  0.00     0.000 A 
ATOM     11  C19 ZIN AC000       0.929  -3.710   6.202  0.00  0.00     0.001 A 
ATOM     12  C18 ZIN AC000       1.427  -2.710   5.388  0.00  0.00     0.009 A 
ENDBRANCH   4   7
BRANCH   4  13
ATOM     13  C23 ZIN AC000       1.670   0.071   4.327  0.00  0.00    -0.035 A 
ATOM     14  C28 ZIN AC000       0.977   1.267   4.320  0.00  0.00     0.009 A 
ATOM     15  C27 ZIN AC000       1.423   2.329   5.085  0.00  0.00     0.001 A 
ATOM     16  C26 ZIN AC000       2.567   2.197   5.850  0.00  0.00     0.000 A 
ATOM     17  C25 ZIN AC000       3.263   1.003   5.854  0.00  0.00     0.001 A 
ATOM     18  C24 ZIN AC000       2.814  -0.060   5.092  0.00  0.00     0.009 A 
ENDBRANCH   4  13
BRANCH   3  19
ATOM     19  C7  ZIN AC000       2.177  -3.141   2.391  0.00  0.00     0.036 C 
BRANCH  19  20
ATOM     20  C8  ZIN AC000       3.293  -3.635   1.468  0.00  0.00     0.235 C 
BRANCH  20  21
ATOM     21  N9  ZIN AC000       3.154  -5.082   1.262  0.00  0.00    -0.067 N 
ATOM     22  H10 ZIN AC000       3.135  -5.549   2.156  0.00  0.00     0.280 HD
ATOM     23  C15 ZIN AC000       1.903  -5.357   0.540  0.00  0.00     0.261 C 
ATOM     24  C14 ZIN AC000       1.761  -6.866   0.327  0.00  0.00     0.195 C 
ATOM     25  O13 ZIN AC000       2.899  -7.350  -0.391  0.00  0.00    -0.388 OA
ATOM     26  C12 ZIN AC000       4.144  -7.085   0.261  0.00  0.00     0.195 C 
ATOM     27  C11 ZIN AC000       4.291  -5.577   0.474  0.00  0.00     0.261 C 
ENDBRANCH  20  21
ENDBRANCH  19  20
ENDBRANCH   3  19
BRANCH   1  28
ATOM     28  C2  ZIN AC000      -0.089  -0.105   0.095  0.00  0.00     0.121 C 
ATOM     29  C1  ZIN AC000      -0.013   1.415  -0.053  0.00  0.00     0.026 C 
ENDBRANCH   1  28
TORSDOF 6
