REMARK  4 active torsions:
REMARK  status: ('A' for Active; 'I' for Inactive)
REMARK    1  A    between atoms: C2_2  and  C3_3 
REMARK       I    between atoms: C2_2  and  N22_22 
REMARK    2  A    between atoms: C5_5  and  C6_6 
REMARK    3  A    between atoms: C6_6  and  C7_7 
REMARK       I    between atoms: N25_25  and  C26_26 
REMARK    4  A    between atoms: C26_26  and  C28_28 
ROOT
ATOM      1  C3  ZIN AC000       1.275   1.915   0.161  0.00  0.00     0.071 A 
ATOM      2  C4  ZIN AC000       1.318   3.311   0.152  0.00  0.00     0.027 A 
ATOM      3  C5  ZIN AC000       2.525   3.962   0.295  0.00  0.00    -0.051 A 
ATOM      4  C18 ZIN AC000       3.694   3.236   0.447  0.00  0.00     0.010 A 
ATOM      5  C19 ZIN AC000       3.662   1.854   0.456  0.00  0.00     0.044 A 
ATOM      6  C20 ZIN AC000       2.459   1.187   0.319  0.00  0.00     0.132 A 
ATOM      7  F21 ZIN AC000       2.428  -0.163   0.328  0.00  0.00    -0.205 F 
ENDROOT
BRANCH   1   8
ATOM      8  C2  ZIN AC000      -0.014   1.212   0.009  0.00  0.00     0.257 C 
ATOM      9  O1  ZIN AC000      -0.356   0.385   0.832  0.00  0.00    -0.267 OA
ATOM     10  N22 ZIN AC000      -0.809   1.482  -1.045  0.00  0.00    -0.345 N 
ATOM     11  C32 ZIN AC000      -2.147   0.881  -1.147  0.00  0.00     0.146 C 
ATOM     12  C23 ZIN AC000      -0.352   2.378  -2.116  0.00  0.00     0.146 C 
ATOM     13  C31 ZIN AC000      -2.257   0.144  -2.483  0.00  0.00     0.145 C 
ATOM     14  N25 ZIN AC000      -1.800   1.041  -3.554  0.00  0.00    -0.349 N 
ATOM     15  C24 ZIN AC000      -0.461   1.638  -3.455  0.00  0.00     0.145 C 
ATOM     16  C26 ZIN AC000      -2.595   1.310  -4.609  0.00  0.00     0.224 C 
ATOM     17  O27 ZIN AC000      -2.207   2.052  -5.487  0.00  0.00    -0.273 OA
BRANCH  16  18
ATOM     18  C28 ZIN AC000      -3.966   0.691  -4.697  0.00  0.00     0.078 A 
ATOM     19  C30 ZIN AC000      -4.820   1.036  -5.919  0.00  0.00     0.015 A 
ATOM     20  C29 ZIN AC000      -5.172   1.621  -4.549  0.00  0.00     0.015 A 
ENDBRANCH  16  18
ENDBRANCH   1   8
BRANCH   3  21
ATOM     21  C6  ZIN AC000       2.572   5.468   0.287  0.00  0.00     0.100 C 
BRANCH  21  22
ATOM     22  C7  ZIN AC000       2.413   5.983   1.694  0.00  0.00     0.070 A 
ATOM     23  C17 ZIN AC000       2.425   7.424   1.951  0.00  0.00     0.006 A 
ATOM     24  C12 ZIN AC000       2.269   7.874   3.282  0.00  0.00     0.046 A 
ATOM     25  C16 ZIN AC000       2.569   8.354   0.921  0.00  0.00     0.014 A 
ATOM     26  C10 ZIN AC000       2.114   6.869   4.342  0.00  0.00     0.272 A 
ATOM     27  C13 ZIN AC000       2.272   9.241   3.557  0.00  0.00     0.018 A 
ATOM     28  N9  ZIN AC000       2.122   5.563   4.003  0.00  0.00    -0.243 N 
ATOM     29  O11 ZIN AC000       1.982   7.208   5.504  0.00  0.00    -0.266 OA
ATOM     30  N8  ZIN AC000       2.272   5.148   2.680  0.00  0.00    -0.175 NA
ATOM     31  H36 ZIN AC000       2.019   4.894   4.699  0.00  0.00     0.192 HD
ATOM     32  C14 ZIN AC000       2.421  10.140   2.524  0.00  0.00     0.001 A 
ATOM     33  C15 ZIN AC000       2.568   9.699   1.215  0.00  0.00     0.001 A 
ENDBRANCH  21  22
ENDBRANCH   3  21
TORSDOF 4
