REMARK  9 active torsions:
REMARK  status: ('A' for Active; 'I' for Inactive)
REMARK    1  A    between atoms: C2_2  and  C3_3 
REMARK    2  A    between atoms: C3_3  and  C4_4 
REMARK    3  A    between atoms: C4_4  and  C5_5 
REMARK    4  A    between atoms: C5_5  and  O6_6 
REMARK    5  A    between atoms: O6_6  and  C7_7 
REMARK       I    between atoms: C7_7  and  N9_9 
REMARK    6  A    between atoms: N9_9  and  C10_10 
REMARK    7  A    between atoms: N14_14  and  C15_15 
REMARK    8  A    between atoms: C21_19  and  O23_20 
REMARK    9  A    between atoms: C24_21  and  O26_22 
ROOT
ATOM      1  C10 ZIN AC000      -5.295  -6.663   0.017  0.00  0.00     0.177 A 
ATOM      2  N11 ZIN AC000      -6.418  -5.960   0.026  0.00  0.00    -0.173 NA
ATOM      3  C12 ZIN AC000      -7.603  -6.569   0.033  0.00  0.00     0.352 A 
ATOM      4  O13 ZIN AC000      -8.622  -5.898   0.042  0.00  0.00    -0.244 OA
ATOM      5  N14 ZIN AC000      -7.694  -7.912   0.032  0.00  0.00    -0.275 N 
ATOM      6  C27 ZIN AC000      -6.567  -8.678   0.022  0.00  0.00     0.145 A 
ATOM      7  C28 ZIN AC000      -5.354  -8.072   0.010  0.00  0.00     0.178 A 
ATOM      8  F29 ZIN AC000      -4.220  -8.806   0.000  0.00  0.00    -0.201 F 
ENDROOT
BRANCH   1   9
ATOM      9  N9  ZIN AC000      -4.072  -6.019   0.009  0.00  0.00    -0.284 N 
ATOM     10  C7  ZIN AC000      -4.019  -4.672   0.015  0.00  0.00     0.366 C 
ATOM     11  O8  ZIN AC000      -5.047  -4.025   0.029  0.00  0.00    -0.238 OA
ATOM     12  H41 ZIN AC000      -3.251  -6.536  -0.002  0.00  0.00     0.172 HD
BRANCH  10  13
ATOM     13  O6  ZIN AC000      -2.828  -4.045   0.007  0.00  0.00    -0.304 OA
BRANCH  13  14
ATOM     14  C5  ZIN AC000      -2.848  -2.593   0.015  0.00  0.00     0.180 C 
BRANCH  14  15
ATOM     15  C4  ZIN AC000      -1.413  -2.063   0.004  0.00  0.00     0.027 C 
BRANCH  15  16
ATOM     16  C3  ZIN AC000      -1.433  -0.534   0.013  0.00  0.00     0.002 C 
BRANCH  16  17
ATOM     17  C2  ZIN AC000       0.002  -0.004   0.002  0.00  0.00    -0.004 C 
ATOM     18  C1  ZIN AC000      -0.019   1.526   0.010  0.00  0.00     0.005 C 
ENDBRANCH  16  17
ENDBRANCH  15  16
ENDBRANCH  14  15
ENDBRANCH  13  14
ENDBRANCH  10  13
ENDBRANCH   1   9
BRANCH   5  19
ATOM     19  C15 ZIN AC000      -9.012  -8.553   0.040  0.00  0.00     0.264 C 
ATOM     20  C24 ZIN AC000      -9.745  -8.227   1.355  0.00  0.00     0.198 C 
ATOM     21  C21 ZIN AC000     -11.051  -7.527   0.895  0.00  0.00     0.179 C 
ATOM     22  C18 ZIN AC000     -11.178  -8.011  -0.572  0.00  0.00     0.151 C 
ATOM     23  O17 ZIN AC000      -9.812  -8.038  -1.038  0.00  0.00    -0.356 OA
ATOM     24  C20 ZIN AC000     -12.009  -7.026  -1.397  0.00  0.00     0.042 C 
BRANCH  20  25
ATOM     25  O26 ZIN AC000     -10.046  -9.423   2.077  0.00  0.00    -0.388 OA
ATOM     26  H46 ZIN AC000     -10.558  -9.277   2.884  0.00  0.00     0.210 HD
ENDBRANCH  20  25
BRANCH  21  27
ATOM     27  O23 ZIN AC000     -12.165  -7.965   1.675  0.00  0.00    -0.390 OA
ATOM     28  H45 ZIN AC000     -13.017  -7.626   1.369  0.00  0.00     0.210 HD
ENDBRANCH  21  27
ENDBRANCH   5  19
TORSDOF 9
