REMARK  9 active torsions:
REMARK  status: ('A' for Active; 'I' for Inactive)
REMARK    1  A    between atoms: C2_2  and  C4_4 
REMARK    2  A    between atoms: C8_8  and  C9_9 
REMARK    3  A    between atoms: C12_12  and  N13_13 
REMARK       I    between atoms: N13_13  and  C14_14 
REMARK    4  A    between atoms: C14_14  and  C16_16 
REMARK    5  A    between atoms: C16_16  and  N17_17 
REMARK    6  A    between atoms: N17_17  and  C18_18 
REMARK    7  A    between atoms: N17_17  and  C22_22 
REMARK    8  A    between atoms: C18_18  and  C19_19 
REMARK    9  A    between atoms: C22_22  and  C23_23 
ROOT
ATOM      1  N13 <0> d          -1.128  -0.783  -1.881  0.00  0.00    -0.325 N 
ATOM      2  C14 <0> d           0.171  -0.479  -2.071  0.00  0.00     0.250 C 
ATOM      3  O15 <0> d           0.800   0.073  -1.194  0.00  0.00    -0.271 OA
ATOM      4  H43 <0> d          -1.610  -1.296  -2.549  0.00  0.00     0.169 HD
ENDROOT
BRANCH   1   5
ATOM      5  C12 <0> d          -1.783  -0.358  -0.719  0.00  0.00     0.048 A 
ATOM      6  C4  <0> d          -1.216  -0.598   0.526  0.00  0.00    -0.027 A 
ATOM      7  C5  <0> d          -1.864  -0.177   1.670  0.00  0.00     0.010 A 
ATOM      8  C6  <0> d          -3.079   0.477   1.578  0.00  0.00     0.001 A 
ATOM      9  C7  <0> d          -3.649   0.712   0.340  0.00  0.00     0.010 A 
ATOM     10  C8  <0> d          -3.006   0.294  -0.808  0.00  0.00    -0.027 A 
BRANCH   6  11
ATOM     11  C2  <0> d           0.108  -1.311   0.627  0.00  0.00     0.013 C 
ATOM     12  C1  <0> d           1.040  -0.526   1.552  0.00  0.00     0.015 C 
ATOM     13  C3  <0> d          -0.112  -2.714   1.196  0.00  0.00     0.015 C 
ENDBRANCH   6  11
BRANCH  10  14
ATOM     14  C9  <0> d          -3.627   0.551  -2.157  0.00  0.00     0.013 C 
ATOM     15  C10 <0> d          -4.993  -0.135  -2.228  0.00  0.00     0.015 C 
ATOM     16  C11 <0> d          -3.802   2.057  -2.359  0.00  0.00     0.015 C 
ENDBRANCH  10  14
ENDBRANCH   1   5
BRANCH   2  17
ATOM     17  C16 <0> d           0.842  -0.827  -3.375  0.00  0.00     0.376 C 
BRANCH  17  18
ATOM     18  N17 <0> d           2.246  -0.395  -3.333  0.00  0.00     0.117 N 
BRANCH  18  19
ATOM     19  C18 <0> d           3.003  -1.162  -2.335  0.00  0.00     0.386 C 
BRANCH  19  20
ATOM     20  C19 <0> d           2.965  -2.626  -2.691  0.00  0.00     0.202 C 
ATOM     21  O20 <0> d           2.452  -2.986  -3.737  0.00  0.00    -0.647 OA
ATOM     22  O21 <0> d           3.446  -3.451  -1.933  0.00  0.00    -0.647 OA
ENDBRANCH  19  20
ENDBRANCH  18  19
BRANCH  18  23
ATOM     23  C22 <0> d           2.868  -0.499  -4.660  0.00  0.00     0.386 C 
BRANCH  23  24
ATOM     24  C23 <0> d           4.134   0.318  -4.686  0.00  0.00     0.202 C 
ATOM     25  O24 <0> d           4.491   0.921  -3.688  0.00  0.00    -0.647 OA
ATOM     26  O25 <0> d           4.801   0.376  -5.705  0.00  0.00    -0.647 OA
ENDBRANCH  23  24
ENDBRANCH  18  23
ENDBRANCH  17  18
ENDBRANCH   2  17
TORSDOF 9
