REMARK  3 active torsions:
REMARK  status: ('A' for Active; 'I' for Inactive)
REMARK    1  A    between atoms: C2_2  and  C4_4 
REMARK    2  A    between atoms: C4_4  and  O5_5 
REMARK    3  A    between atoms: C26_23  and  O28_24 
ROOT
ATOM      1  C4  <0> d          -1.469  -0.520  -0.967  0.00  0.00     0.125 C 
ATOM      2  C6  <0> d          -0.002  -0.425  -1.454  0.00  0.00     0.047 C 
ATOM      3  C7  <0> d           0.482  -1.885  -1.675  0.00  0.00     0.009 C 
ATOM      4  C8  <0> d          -0.827  -2.648  -1.907  0.00  0.00     0.005 C 
ATOM      5  C10 <0> d          -0.774  -4.143  -1.647  0.00  0.00     0.035 C 
ATOM      6  C12 <0> d           0.209  -4.805  -2.614  0.00  0.00     0.017 C 
ATOM      7  C13 <0> d           0.287  -6.307  -2.324  0.00  0.00     0.012 C 
ATOM      8  C15 <0> d           1.171  -6.990  -3.369  0.00  0.00     0.015 C 
ATOM      9  C16 <0> d          -1.119  -6.873  -2.393  0.00  0.00    -0.057 A 
ATOM     10  C17 <0> d          -1.349  -7.932  -3.157  0.00  0.00     0.059 A 
ATOM     11  C18 <0> d          -2.703  -8.497  -3.265  0.00  0.00     0.172 A 
ATOM     12  O19 <0> d          -2.910  -9.493  -3.933  0.00  0.00    -0.289 OA
ATOM     13  C20 <0> d          -3.802  -7.830  -2.546  0.00  0.00     0.052 A 
ATOM     14  C21 <0> d          -3.548  -6.778  -1.784  0.00  0.00    -0.006 A 
ATOM     15  C22 <0> d          -2.189  -6.201  -1.584  0.00  0.00     0.037 A 
ATOM     16  C23 <0> d          -1.826  -6.361  -0.106  0.00  0.00     0.028 C 
ATOM     17  C24 <0> d          -2.192  -4.696  -1.863  0.00  0.00     0.147 C 
ATOM     18  F25 <0> d          -2.556  -4.476  -3.196  0.00  0.00    -0.238 F 
ATOM     19  C26 <0> d          -3.221  -4.018  -0.963  0.00  0.00     0.160 C 
ATOM     20  C29 <0> d          -3.183  -2.489  -1.109  0.00  0.00     0.048 C 
ATOM     21  C30 <0> d          -1.756  -2.013  -0.838  0.00  0.00     0.001 C 
ATOM     22  C31 <0> d          -1.289  -2.525   0.526  0.00  0.00     0.019 C 
ENDROOT
BRANCH   1  23
ATOM     23  C2  <0> d          -1.620   0.158   0.370  0.00  0.00     0.158 C 
ATOM     24  C1  <0> d          -2.174   1.557   0.448  0.00  0.00     0.094 C 
ATOM     25  O3  <0> d          -1.296  -0.420   1.380  0.00  0.00    -0.295 OA
ENDBRANCH   1  23
BRANCH   1  26
ATOM     26  O5  <0> d          -2.350   0.072  -1.924  0.00  0.00    -0.381 OA
ATOM     27  H35 <0> d          -2.201   1.018  -2.063  0.00  0.00     0.211 HD
ENDBRANCH   1  26
BRANCH  19  28
ATOM     28  O28 <0> d          -2.950  -4.362   0.397  0.00  0.00    -0.392 OA
ATOM     29  H51 <0> d          -3.564  -3.968   1.032  0.00  0.00     0.210 HD
ENDBRANCH  19  28
TORSDOF 3
