REMARK  5 active torsions:
REMARK  status: ('A' for Active; 'I' for Inactive)
REMARK    1  A    between atoms: O1_1  and  C2_2 
REMARK    2  A    between atoms: N9_8  and  C11_10 
REMARK    3  A    between atoms: C11_10  and  C12_11 
REMARK    4  A    between atoms: C24_22  and  O26_23 
REMARK    5  A    between atoms: C29_26  and  O30_27 
ROOT
ATOM      1  C2  <0> d          -0.253  -0.091  -0.035  0.00  0.00     0.099 A 
ATOM      2  C3  <0> d          -0.170  -0.808  -1.226  0.00  0.00     0.040 A 
ATOM      3  C4  <0> d          -0.093  -2.190  -1.277  0.00  0.00     0.011 A 
ATOM      4  C5  <0> d          -0.080  -2.931  -0.108  0.00  0.00    -0.046 A 
ATOM      5  C6  <0> d          -0.106  -4.424  -0.043  0.00  0.00     0.075 C 
ATOM      6  C7  <0> d          -0.037  -4.964   1.375  0.00  0.00     0.227 C 
ATOM      7  N9  <0> d           1.361  -5.152   1.787  0.00  0.00    -0.063 N 
ATOM      8  H10 <0> d           1.825  -5.746   1.117  0.00  0.00     0.280 HD
ATOM      9  C16 <0> d           2.067  -3.870   1.862  0.00  0.00     0.236 C 
ATOM     10  C17 <0> d           1.397  -2.950   2.892  0.00  0.00     0.048 C 
ATOM     11  C18 <0> d          -0.060  -2.755   2.468  0.00  0.00     0.054 C 
ATOM     12  C19 <0> d          -0.090  -2.207   1.061  0.00  0.00    -0.001 A 
ATOM     13  C20 <0> d          -0.222  -0.829   1.154  0.00  0.00     0.110 A 
ATOM     14  O21 <0> d          -0.336  -0.458   2.449  0.00  0.00    -0.339 OA
ATOM     15  C22 <0> d          -0.740  -1.632   3.230  0.00  0.00     0.174 C 
ATOM     16  C24 <0> d          -2.255  -1.662   3.211  0.00  0.00     0.148 C 
ATOM     17  C27 <0> d          -2.881  -3.037   3.172  0.00  0.00     0.037 C 
ATOM     18  C28 <0> d          -2.265  -3.901   2.072  0.00  0.00     0.043 C 
ATOM     19  C29 <0> d          -0.733  -4.094   2.420  0.00  0.00     0.101 C 
ENDROOT
BRANCH   7  20
ATOM     20  C11 <0> d           1.391  -5.796   3.106  0.00  0.00     0.240 C 
BRANCH  20  21
ATOM     21  C12 <0> d           2.805  -6.306   3.392  0.00  0.00     0.011 C 
ATOM     22  C15 <0> d           2.919  -7.107   4.699  0.00  0.00     0.006 C 
ATOM     23  C14 <0> d           4.263  -6.395   4.927  0.00  0.00     0.001 C 
ATOM     24  C13 <0> d           3.719  -5.257   4.047  0.00  0.00     0.006 C 
ENDBRANCH  20  21
ENDBRANCH   7  20
BRANCH  19  25
ATOM     25  O30 <0> d          -0.614  -4.717   3.700  0.00  0.00    -0.386 OA
ATOM     26  H54 <0> d          -1.033  -5.587   3.755  0.00  0.00     0.210 HD
ENDBRANCH  19  25
BRANCH  16  27
ATOM     27  O26 <0> d          -2.703  -0.938   2.063  0.00  0.00    -0.393 OA
ATOM     28  H49 <0> d          -3.665  -0.904   1.970  0.00  0.00     0.210 HD
ENDBRANCH  16  27
BRANCH   1  29
ATOM     29  O1  <0> d          -0.353   1.265  -0.027  0.00  0.00    -0.358 OA
ATOM     30  H31 <0> d           0.498   1.722  -0.007  0.00  0.00     0.217 HD
ENDBRANCH   1  29
TORSDOF 5
