REMARK  1 active torsions:
REMARK  status: ('A' for Active; 'I' for Inactive)
REMARK    1  A    between atoms: C2_2  and  O3_3 
ROOT
ATOM      1  C1  <0> d          -0.823   1.020   0.201  0.00  0.00     0.046 C 
ATOM      2  C2  <0> d          -0.723  -0.506   0.207  0.00  0.00     0.062 C 
ATOM      3  C4  <0> d          -2.135  -1.136   0.315  0.00  0.00     0.038 C 
ATOM      4  C5  <0> d          -2.175  -1.889   1.673  0.00  0.00     0.009 C 
ATOM      5  C6  <0> d          -1.101  -1.169   2.496  0.00  0.00     0.001 C 
ATOM      6  C8  <0> d          -0.527  -1.955   3.662  0.00  0.00    -0.004 C 
ATOM      7  C10 <0> d          -1.625  -2.223   4.696  0.00  0.00     0.010 C 
ATOM      8  C11 <0> d          -1.049  -3.074   5.829  0.00  0.00     0.035 C 
ATOM      9  C12 <0> d           0.169  -2.371   6.399  0.00  0.00    -0.068 C 
ATOM     10  C13 <0> d           0.247  -2.242   7.723  0.00  0.00     0.053 C 
ATOM     11  C14 <0> d           1.410  -1.585   8.330  0.00  0.00     0.149 C 
ATOM     12  O15 <0> d           1.365  -1.110   9.446  0.00  0.00    -0.293 OA
ATOM     13  C16 <0> d           2.670  -1.530   7.489  0.00  0.00     0.084 C 
ATOM     14  C17 <0> d           2.278  -1.002   6.110  0.00  0.00     0.022 C 
ATOM     15  C18 <0> d           1.220  -1.872   5.455  0.00  0.00    -0.016 C 
ATOM     16  C19 <0> d           1.920  -3.086   4.841  0.00  0.00     0.020 C 
ATOM     17  C20 <0> d           0.579  -1.099   4.297  0.00  0.00     0.002 C 
ATOM     18  C22 <0> d           1.662  -0.715   3.293  0.00  0.00     0.007 C 
ATOM     19  C23 <0> d           1.068  -0.043   2.045  0.00  0.00     0.013 C 
ATOM     20  C24 <0> d           0.027  -0.982   1.447  0.00  0.00    -0.009 C 
ATOM     21  C25 <0> d           0.653  -2.355   1.190  0.00  0.00     0.018 C 
ENDROOT
BRANCH   2  22
ATOM     22  O3  <0> d          -0.065  -0.963  -0.976  0.00  0.00    -0.389 OA
ATOM     23  H29 <0> d          -0.508  -0.708  -1.797  0.00  0.00     0.210 HD
ENDBRANCH   2  22
TORSDOF 1
