REMARK  5 active torsions:
REMARK  status: ('A' for Active; 'I' for Inactive)
REMARK    1  A    between atoms: C2_2  and  C4_4 
REMARK    2  A    between atoms: C10_10  and  N11_11 
REMARK    3  A    between atoms: N11_11  and  C12_12 
REMARK    4  A    between atoms: C15_15  and  N16_16 
REMARK    5  A    between atoms: N26_26  and  C27_27 
ROOT
ATOM      1  C4  <0> d          -1.280  -0.705  -0.340  0.00  0.00     0.084 A 
ATOM      2  C5  <0> d          -1.221  -2.084  -0.167  0.00  0.00    -0.027 A 
ATOM      3  C6  <0> d           0.086  -2.820  -0.311  0.00  0.00     0.050 C 
ATOM      4  C7  <0> d          -2.404  -2.780   0.145  0.00  0.00     0.036 A 
ATOM      5  C8  <0> d          -2.401  -4.173   0.330  0.00  0.00     0.152 A 
ATOM      6  N9  <0> d          -3.538  -4.774   0.622  0.00  0.00    -0.074 NA
ATOM      7  C10 <0> d          -4.669  -4.086   0.740  0.00  0.00     0.730 A 
ATOM      8  N24 <0> d          -4.723  -2.773   0.575  0.00  0.00    -0.044 NA
ATOM      9  C25 <0> d          -3.628  -2.083   0.280  0.00  0.00     0.164 A 
ATOM     10  N26 <0> d          -3.679  -0.724   0.108  0.00  0.00    -0.292 N 
ATOM     11  C32 <0> d          -2.569  -0.020  -0.185  0.00  0.00     0.264 A 
ATOM     12  O33 <0> d          -2.636   1.186  -0.333  0.00  0.00    -0.267 OA
ENDROOT
BRANCH   7  13
ATOM     13  N11 <0> d          -5.831  -4.765   1.047  0.00  0.00    -0.171 N 
ATOM     14  H41 <0> d          -6.678  -4.293   1.064  0.00  0.00     0.186 HD
BRANCH  13  15
ATOM     15  C12 <0> d          -5.786  -6.129   1.333  0.00  0.00     0.142 A 
ATOM     16  N23 <0> d          -4.646  -6.788   1.202  0.00  0.00    -0.241 NA
ATOM     17  C22 <0> d          -4.556  -8.077   1.466  0.00  0.00     0.148 A 
ATOM     18  C15 <0> d          -5.667  -8.795   1.883  0.00  0.00     0.048 A 
ATOM     19  C14 <0> d          -6.886  -8.136   2.028  0.00  0.00     0.034 A 
ATOM     20  C13 <0> d          -6.941  -6.783   1.747  0.00  0.00     0.053 A 
BRANCH  18  21
ATOM     21  N16 <0> d          -5.565 -10.164   2.156  0.00  0.00    -0.376 N 
ATOM     22  C21 <0> d          -4.261 -10.844   2.132  0.00  0.00     0.153 C 
ATOM     23  C20 <0> d          -4.099 -11.624   3.446  0.00  0.00     0.289 C 
ATOM     24  N19 <0> d          -5.257 -12.510   3.628  0.00  0.00     0.086 N 
ATOM     25  C18 <0> d          -6.501 -11.740   3.763  0.00  0.00     0.289 C 
ATOM     26  H48 <0> d          -5.123 -13.122   4.419  0.00  0.00     0.316 HD
ATOM     27  C17 <0> d          -6.760 -10.963   2.469  0.00  0.00     0.153 C 
ENDBRANCH  18  21
ENDBRANCH  13  15
ENDBRANCH   7  13
BRANCH  10  28
ATOM     28  C27 <0> d          -4.959  -0.026   0.253  0.00  0.00     0.095 C 
ATOM     29  C31 <0> d          -5.214   0.868  -0.973  0.00  0.00     0.026 C 
ATOM     30  C30 <0> d          -5.315   2.316  -0.451  0.00  0.00     0.002 C 
ATOM     31  C29 <0> d          -4.537   2.292   0.888  0.00  0.00     0.002 C 
ATOM     32  C28 <0> d          -4.915   0.910   1.479  0.00  0.00     0.026 C 
ENDBRANCH  10  28
BRANCH   1  33
ATOM     33  C2  <0> d          -0.072   0.053  -0.665  0.00  0.00     0.161 C 
ATOM     34  C1  <0> d           0.050   0.741  -2.000  0.00  0.00     0.097 C 
ATOM     35  O3  <0> d           0.833   0.129   0.141  0.00  0.00    -0.293 OA
ENDBRANCH   1  33
TORSDOF 5
