REMARK  8 active torsions:
REMARK  status: ('A' for Active; 'I' for Inactive)
REMARK    1  A    between atoms: C2_2  and  N3_3 
REMARK    2  A    between atoms: N3_3  and  C5_5 
REMARK    3  A    between atoms: N3_3  and  C7_7 
REMARK    4  A    between atoms: C7_7  and  C8_8 
REMARK    5  A    between atoms: C8_8  and  C9_9 
REMARK    6  A    between atoms: C9_9  and  C10_10 
REMARK    7  A    between atoms: C10_10  and  N13_12 
REMARK    8  A    between atoms: N13_12  and  C14_13 
ROOT
ATOM      1  N13 <0> d          -0.922  -3.249   4.551  0.00  0.00    -0.385 N 
ATOM      2  H45 <0> d          -1.867  -3.078   4.418  0.00  0.00     0.160 HD
ENDROOT
BRANCH   1   3
ATOM      3  C10 <0> d          -0.140  -3.903   3.499  0.00  0.00     0.077 C 
ATOM      4  C12 <0> d          -0.077  -5.407   3.771  0.00  0.00     0.032 C 
BRANCH   3   5
ATOM      5  C9  <0> d          -0.805  -3.658   2.143  0.00  0.00     0.026 C 
BRANCH   5   6
ATOM      6  C8  <0> d          -0.756  -2.164   1.814  0.00  0.00     0.030 C 
BRANCH   6   7
ATOM      7  C7  <0> d          -1.421  -1.919   0.458  0.00  0.00     0.235 C 
BRANCH   7   8
ATOM      8  N3  <0> d          -1.374  -0.485   0.142  0.00  0.00    -0.072 N 
ATOM      9  H4  <0> d          -1.792   0.039   0.895  0.00  0.00     0.279 HD
BRANCH   8  10
ATOM     10  C2  <0> d           0.024  -0.066  -0.029  0.00  0.00     0.230 C 
ATOM     11  C1  <0> d           0.082   1.451  -0.216  0.00  0.00     0.034 C 
ENDBRANCH   8  10
BRANCH   8  12
ATOM     12  C5  <0> d          -2.116  -0.233  -1.101  0.00  0.00     0.230 C 
ATOM     13  C6  <0> d          -3.600  -0.533  -0.879  0.00  0.00     0.034 C 
ENDBRANCH   8  12
ENDBRANCH   7   8
ENDBRANCH   6   7
ENDBRANCH   5   6
ENDBRANCH   3   5
ENDBRANCH   1   3
BRANCH   1  14
ATOM     14  C14 <0> d          -0.310  -2.873   5.738  0.00  0.00     0.042 A 
ATOM     15  C25 <0> d           1.040  -3.107   5.951  0.00  0.00     0.047 A 
ATOM     16  C24 <0> d           1.624  -2.716   7.148  0.00  0.00     0.090 A 
ATOM     17  N22 <0> d           0.932  -2.133   8.099  0.00  0.00    -0.365 N 
ATOM     18  C21 <0> d          -0.375  -1.882   7.964  0.00  0.00     0.046 A 
ATOM     19  H23 <0> d           1.379  -1.879   8.921  0.00  0.00     0.165 HD
ATOM     20  C15 <0> d          -1.045  -2.245   6.771  0.00  0.00     0.017 A 
ATOM     21  C20 <0> d          -1.102  -1.258   8.992  0.00  0.00     0.054 A 
ATOM     22  C16 <0> d          -2.415  -1.980   6.634  0.00  0.00     0.018 A 
ATOM     23  C17 <0> d          -3.088  -1.374   7.652  0.00  0.00     0.025 A 
ATOM     24  C18 <0> d          -2.432  -1.014   8.828  0.00  0.00     0.036 A 
ATOM     25 Cl19 <0> d          -3.324  -0.243  10.102  0.00  0.00    -0.084 Cl
ENDBRANCH   1  14
TORSDOF 8
