REMARK  8 active torsions:
REMARK  status: ('A' for Active; 'I' for Inactive)
REMARK    1  A    between atoms: N2_2  and  C4_4 
REMARK    2  A    between atoms: C4_4  and  C5_5 
REMARK    3  A    between atoms: C5_5  and  O6_6 
REMARK    4  A    between atoms: O6_6  and  C7_7 
REMARK    5  A    between atoms: C7_7  and  C9_9 
REMARK    6  A    between atoms: C9_9  and  C11_10 
REMARK    7  A    between atoms: C9_9  and  C17_16 
REMARK    8  A    between atoms: C17_16  and  O18_17 
ROOT
ATOM      1  C9  ZIN AC000      -0.916  -1.278  -4.907  0.00  0.00     0.152 C 
ENDROOT
BRANCH   1   2
ATOM      2  C7  ZIN AC000      -1.639  -0.628  -3.755  0.00  0.00     0.270 C 
ATOM      3  O8  ZIN AC000      -2.589   0.088  -3.966  0.00  0.00    -0.264 OA
BRANCH   2   4
ATOM      4  O6  ZIN AC000      -1.227  -0.844  -2.496  0.00  0.00    -0.319 OA
BRANCH   4   5
ATOM      5  C5  ZIN AC000      -1.971  -0.185  -1.437  0.00  0.00     0.209 C 
BRANCH   5   6
ATOM      6  C4  ZIN AC000      -1.360  -0.549  -0.083  0.00  0.00     0.298 C 
BRANCH   6   7
ATOM      7  N2  ZIN AC000       0.002  -0.004   0.002  0.00  0.00     0.082 N 
ATOM      8  C1  ZIN AC000      -0.018   1.465   0.010  0.00  0.00     0.309 C 
ATOM      9  C3  ZIN AC000       0.706  -0.527   1.180  0.00  0.00     0.309 C 
ENDBRANCH   6   7
ENDBRANCH   5   6
ENDBRANCH   4   5
ENDBRANCH   2   4
ENDBRANCH   1   2
BRANCH   1  10
ATOM     10  C11 ZIN AC000      -1.571  -0.877  -6.203  0.00  0.00    -0.042 A 
ATOM     11  C16 ZIN AC000      -0.843  -0.204  -7.166  0.00  0.00     0.008 A 
ATOM     12  C15 ZIN AC000      -1.443   0.161  -8.357  0.00  0.00     0.001 A 
ATOM     13  C14 ZIN AC000      -2.773  -0.139  -8.581  0.00  0.00     0.000 A 
ATOM     14  C13 ZIN AC000      -3.503  -0.807  -7.615  0.00  0.00     0.001 A 
ATOM     15  C12 ZIN AC000      -2.902  -1.176  -6.426  0.00  0.00     0.008 A 
ENDBRANCH   1  10
BRANCH   1  16
ATOM     16  C17 ZIN AC000      -0.978  -2.800  -4.754  0.00  0.00     0.074 C 
ATOM     17  C22 ZIN AC000      -0.313  -3.237  -3.432  0.00  0.00     0.039 C 
ATOM     18  C21 ZIN AC000       0.431  -4.551  -3.729  0.00  0.00     0.003 C 
ATOM     19  C20 ZIN AC000       0.192  -4.866  -5.220  0.00  0.00     0.003 C 
ATOM     20  C19 ZIN AC000      -0.132  -3.490  -5.852  0.00  0.00     0.039 C 
BRANCH  16  21
ATOM     21  O18 ZIN AC000      -2.333  -3.251  -4.805  0.00  0.00    -0.389 OA
ATOM     22  H38 ZIN AC000      -2.432  -4.209  -4.713  0.00  0.00     0.210 HD
ENDBRANCH  16  21
ENDBRANCH   1  16
TORSDOF 8
