REMARK  5 active torsions:
REMARK  status: ('A' for Active; 'I' for Inactive)
REMARK    1  A    between atoms: O2_2  and  C3_3 
REMARK    2  A    between atoms: C4_4  and  O5_5 
REMARK    3  A    between atoms: C9_9  and  N10_10 
REMARK    4  A    between atoms: C12_12  and  N13_13 
REMARK       I    between atoms: N16_16  and  C17_17 
REMARK    5  A    between atoms: C17_17  and  C19_19 
ROOT
ATOM      1  C3  ZIN AC000      -1.200  -0.637   0.010  0.00  0.00     0.103 A 
ATOM      2  C4  ZIN AC000      -1.246  -2.038   0.009  0.00  0.00     0.102 A 
ATOM      3  C7  ZIN AC000      -2.442  -2.697   0.018  0.00  0.00     0.057 A 
ATOM      4  C8  ZIN AC000      -3.636  -1.967   0.028  0.00  0.00     0.039 A 
ATOM      5  C9  ZIN AC000      -4.901  -2.603   0.038  0.00  0.00     0.137 A 
ATOM      6  N11 ZIN AC000      -5.988  -1.845   0.048  0.00  0.00    -0.202 NA
ATOM      7  C12 ZIN AC000      -5.907  -0.517   0.048  0.00  0.00     0.184 A 
ATOM      8  N27 ZIN AC000      -4.757   0.127   0.039  0.00  0.00    -0.330 N 
ATOM      9  H28 ZIN AC000      -4.748   1.097   0.040  0.00  0.00     0.168 HD
ATOM     10  C29 ZIN AC000      -3.598  -0.551   0.029  0.00  0.00     0.051 A 
ATOM     11  C30 ZIN AC000      -2.361   0.104   0.025  0.00  0.00     0.070 A 
ENDROOT
BRANCH   7  12
ATOM     12  N13 ZIN AC000      -7.080   0.218   0.059  0.00  0.00    -0.250 NA
ATOM     13  C26 ZIN AC000      -8.255  -0.664   0.068  0.00  0.00     0.118 C 
ATOM     14  C25 ZIN AC000      -9.523   0.179  -0.103  0.00  0.00     0.140 C 
ATOM     15  N16 ZIN AC000      -9.527   1.231   0.925  0.00  0.00    -0.348 N 
ATOM     16  C15 ZIN AC000      -8.327   2.069   1.067  0.00  0.00     0.140 C 
ATOM     17  C17 ZIN AC000     -10.602   1.422   1.715  0.00  0.00     0.248 C 
ATOM     18  C14 ZIN AC000      -7.105   1.152   1.192  0.00  0.00     0.118 C 
ATOM     19  O18 ZIN AC000     -10.588   2.294   2.557  0.00  0.00    -0.270 OA
BRANCH  17  20
ATOM     20  C19 ZIN AC000     -11.822   0.552   1.551  0.00  0.00     0.213 C 
ATOM     21  O24 ZIN AC000     -12.795   0.888   2.547  0.00  0.00    -0.376 OA
ATOM     22  C23 ZIN AC000     -13.993   1.372   1.915  0.00  0.00     0.168 C 
ATOM     23  C22 ZIN AC000     -13.979   0.755   0.493  0.00  0.00     0.029 C 
ATOM     24  C21 ZIN AC000     -12.461   0.801   0.168  0.00  0.00     0.043 C 
ENDBRANCH  17  20
ENDBRANCH   7  12
BRANCH   5  25
ATOM     25  N10 ZIN AC000      -5.000  -3.979   0.038  0.00  0.00    -0.383 N 
ATOM     26  H38 ZIN AC000      -4.197  -4.523   0.031  0.00  0.00     0.157 HD
ATOM     27  H39 ZIN AC000      -5.872  -4.403   0.045  0.00  0.00     0.157 HD
ENDBRANCH   5  25
BRANCH   1  28
ATOM     28  O2  ZIN AC000       0.002  -0.004   0.002  0.00  0.00    -0.353 OA
ATOM     29  C1  ZIN AC000      -0.017   1.425   0.010  0.00  0.00     0.210 C 
ENDBRANCH   1  28
BRANCH   2  30
ATOM     30  O5  ZIN AC000      -0.086  -2.749  -0.001  0.00  0.00    -0.353 OA
ATOM     31  C6  ZIN AC000      -0.198  -4.173  -0.002  0.00  0.00     0.210 C 
ENDBRANCH   2  30
TORSDOF 5
