REMARK  19 active torsions:
REMARK  status: ('A' for Active; 'I' for Inactive)
REMARK    1  A    between atoms: O1_1  and  C2_2 
REMARK    2  A    between atoms: C2_2  and  C3_3 
REMARK    3  A    between atoms: C5_5  and  C6_6 
REMARK    4  A    between atoms: C6_6  and  O8_7 
REMARK    5  A    between atoms: C6_6  and  C9_8 
REMARK    6  A    between atoms: C9_8  and  N10_9 
REMARK    7  A    between atoms: N10_9  and  C13_12 
REMARK    8  A    between atoms: C13_12  and  C14_13 
REMARK    9  A    between atoms: C14_13  and  C15_14 
REMARK   10  A    between atoms: C15_14  and  C16_15 
REMARK   11  A    between atoms: C16_15  and  C17_16 
REMARK   12  A    between atoms: C17_16  and  C18_17 
REMARK   13  A    between atoms: C18_17  and  O19_18 
REMARK   14  A    between atoms: O19_18  and  C20_19 
REMARK   15  A    between atoms: C20_19  and  C21_20 
REMARK   16  A    between atoms: C21_20  and  C22_21 
REMARK   17  A    between atoms: C22_21  and  C23_22 
REMARK   18  A    between atoms: C23_22  and  C24_23 
REMARK   19  A    between atoms: C32_31  and  O33_32 
ROOT
ATOM      1  N10 ZIN AC000      -6.541   2.008  -1.387  0.00  0.00    -0.072 N 
ATOM      2  H11 ZIN AC000      -7.281   1.743  -0.755  0.00  0.00     0.277 HD
ATOM      3  H12 ZIN AC000      -6.149   2.891  -1.095  0.00  0.00     0.277 HD
ENDROOT
BRANCH   1   4
ATOM      4  C9  ZIN AC000      -5.492   0.979  -1.374  0.00  0.00     0.268 C 
BRANCH   4   5
ATOM      5  C6  ZIN AC000      -4.929   0.844   0.042  0.00  0.00     0.176 C 
BRANCH   5   6
ATOM      6  C5  ZIN AC000      -3.772  -0.121   0.032  0.00  0.00    -0.027 A 
ATOM      7  C4  ZIN AC000      -2.474   0.357   0.022  0.00  0.00     0.022 A 
ATOM      8  C3  ZIN AC000      -1.412  -0.526   0.013  0.00  0.00    -0.001 A 
ATOM      9  C32 ZIN AC000      -1.647  -1.893   0.008  0.00  0.00     0.074 A 
ATOM     10  C31 ZIN AC000      -2.950  -2.370   0.023  0.00  0.00     0.038 A 
ATOM     11  C30 ZIN AC000      -4.009  -1.483   0.033  0.00  0.00     0.012 A 
BRANCH   8  12
ATOM     12  C2  ZIN AC000       0.002  -0.004   0.002  0.00  0.00     0.205 C 
BRANCH  12  13
ATOM     13  O1  ZIN AC000      -0.017   1.425   0.010  0.00  0.00    -0.396 OA
ATOM     14  H34 ZIN AC000       0.861   1.830   0.004  0.00  0.00     0.209 HD
ENDBRANCH  12  13
ENDBRANCH   8  12
BRANCH   9  15
ATOM     15  O33 ZIN AC000      -0.604  -2.764  -0.002  0.00  0.00    -0.360 OA
ATOM     16  H68 ZIN AC000      -0.312  -3.018  -0.888  0.00  0.00     0.217 HD
ENDBRANCH   9  15
ENDBRANCH   5   6
BRANCH   5  17
ATOM     17  O8  ZIN AC000      -5.949   0.356   0.916  0.00  0.00    -0.389 OA
ATOM     18  H38 ZIN AC000      -6.301  -0.509   0.666  0.00  0.00     0.210 HD
ENDBRANCH   5  17
ENDBRANCH   4   5
ENDBRANCH   1   4
BRANCH   1  19
ATOM     19  C13 ZIN AC000      -7.082   2.138  -2.747  0.00  0.00     0.232 C 
BRANCH  19  20
ATOM     20  C14 ZIN AC000      -8.174   3.210  -2.761  0.00  0.00     0.027 C 
BRANCH  20  21
ATOM     21  C15 ZIN AC000      -8.738   3.345  -4.177  0.00  0.00     0.002 C 
BRANCH  21  22
ATOM     22  C16 ZIN AC000      -9.830   4.416  -4.191  0.00  0.00     0.002 C 
BRANCH  22  23
ATOM     23  C17 ZIN AC000     -10.393   4.551  -5.607  0.00  0.00     0.026 C 
BRANCH  23  24
ATOM     24  C18 ZIN AC000     -11.485   5.623  -5.621  0.00  0.00     0.167 C 
BRANCH  24  25
ATOM     25  O19 ZIN AC000     -12.012   5.749  -6.944  0.00  0.00    -0.391 OA
BRANCH  25  26
ATOM     26  C20 ZIN AC000     -13.044   6.730  -7.067  0.00  0.00     0.167 C 
BRANCH  26  27
ATOM     27  C21 ZIN AC000     -13.530   6.778  -8.517  0.00  0.00     0.027 C 
BRANCH  27  28
ATOM     28  C22 ZIN AC000     -14.636   7.828  -8.649  0.00  0.00     0.007 C 
BRANCH  28  29
ATOM     29  C23 ZIN AC000     -15.122   7.877 -10.099  0.00  0.00     0.038 C 
BRANCH  29  30
ATOM     30  C24 ZIN AC000     -16.211   8.911 -10.229  0.00  0.00    -0.058 A 
ATOM     31  C29 ZIN AC000     -15.888  10.219 -10.537  0.00  0.00     0.007 A 
ATOM     32  C28 ZIN AC000     -16.887  11.167 -10.660  0.00  0.00     0.001 A 
ATOM     33  C27 ZIN AC000     -18.208  10.807 -10.468  0.00  0.00     0.000 A 
ATOM     34  C26 ZIN AC000     -18.530   9.500 -10.155  0.00  0.00     0.001 A 
ATOM     35  C25 ZIN AC000     -17.531   8.552 -10.036  0.00  0.00     0.007 A 
ENDBRANCH  29  30
ENDBRANCH  28  29
ENDBRANCH  27  28
ENDBRANCH  26  27
ENDBRANCH  25  26
ENDBRANCH  24  25
ENDBRANCH  23  24
ENDBRANCH  22  23
ENDBRANCH  21  22
ENDBRANCH  20  21
ENDBRANCH  19  20
ENDBRANCH   1  19
TORSDOF 19
