REMARK  12 active torsions:
REMARK  status: ('A' for Active; 'I' for Inactive)
REMARK    1  A    between atoms: C2_2  and  O3_3 
REMARK    2  A    between atoms: O3_3  and  C4_4 
REMARK    3  A    between atoms: C9_9  and  O10_10 
REMARK    4  A    between atoms: O10_10  and  C11_11 
REMARK    5  A    between atoms: C11_11  and  C12_12 
REMARK    6  A    between atoms: C12_12  and  N13_13 
REMARK    7  A    between atoms: N13_13  and  C16_16 
REMARK    8  A    between atoms: C16_16  and  C19_18 
REMARK    9  A    between atoms: C19_18  and  C20_19 
REMARK   10  A    between atoms: C23_22  and  O24_23 
REMARK   11  A    between atoms: C26_25  and  S27_26 
REMARK   12  A    between atoms: S27_26  and  N28_27 
ROOT
ATOM      1  C16 ZIN AC000       5.262   0.662  -5.278  0.00  0.00     0.186 C 
ATOM      2  C18 ZIN AC000       5.899   0.286  -6.618  0.00  0.00     0.040 C 
ENDROOT
BRANCH   1   3
ATOM      3  N13 ZIN AC000       4.718  -0.543  -4.639  0.00  0.00    -0.069 N 
ATOM      4  H14 ZIN AC000       4.365  -0.308  -3.723  0.00  0.00     0.277 HD
ATOM      5  H15 ZIN AC000       5.448  -1.235  -4.550  0.00  0.00     0.277 HD
BRANCH   3   6
ATOM      6  C12 ZIN AC000       3.628  -1.084  -5.461  0.00  0.00     0.259 C 
BRANCH   6   7
ATOM      7  C11 ZIN AC000       2.979  -2.264  -4.734  0.00  0.00     0.203 C 
BRANCH   7   8
ATOM      8  O10 ZIN AC000       2.321  -1.795  -3.556  0.00  0.00    -0.347 OA
BRANCH   8   9
ATOM      9  C9  ZIN AC000       1.782  -2.735  -2.734  0.00  0.00     0.102 A 
ATOM     10  C4  ZIN AC000       1.201  -2.355  -1.527  0.00  0.00     0.102 A 
ATOM     11  C5  ZIN AC000       0.653  -3.316  -0.693  0.00  0.00     0.039 A 
ATOM     12  C6  ZIN AC000       0.689  -4.650  -1.058  0.00  0.00     0.003 A 
ATOM     13  C7  ZIN AC000       1.271  -5.027  -2.254  0.00  0.00     0.003 A 
ATOM     14  C8  ZIN AC000       1.820  -4.072  -3.090  0.00  0.00     0.039 A 
BRANCH  10  15
ATOM     15  O3  ZIN AC000       1.166  -1.043  -1.170  0.00  0.00    -0.349 OA
BRANCH  15  16
ATOM     16  C2  ZIN AC000       0.640  -0.737   0.122  0.00  0.00     0.171 C 
ATOM     17  C1  ZIN AC000       0.573   0.782   0.298  0.00  0.00     0.034 C 
ENDBRANCH  15  16
ENDBRANCH  10  15
ENDBRANCH   8   9
ENDBRANCH   7   8
ENDBRANCH   6   7
ENDBRANCH   3   6
ENDBRANCH   1   3
BRANCH   1  18
ATOM     18  C19 ZIN AC000       6.321   1.289  -4.369  0.00  0.00     0.071 C 
BRANCH  18  19
ATOM     19  C20 ZIN AC000       5.674   1.746  -3.087  0.00  0.00    -0.054 A 
ATOM     20  C31 ZIN AC000       5.712   0.935  -1.967  0.00  0.00     0.035 A 
ATOM     21  C26 ZIN AC000       5.124   1.354  -0.789  0.00  0.00     0.113 A 
ATOM     22  C23 ZIN AC000       4.487   2.586  -0.733  0.00  0.00     0.091 A 
ATOM     23  C22 ZIN AC000       4.446   3.395  -1.859  0.00  0.00     0.039 A 
ATOM     24  C21 ZIN AC000       5.040   2.974  -3.033  0.00  0.00     0.010 A 
BRANCH  21  25
ATOM     25  S27 ZIN AC000       5.177   0.323   0.638  0.00  0.00     0.259 S 
ATOM     26  O29 ZIN AC000       3.850   0.270   1.145  0.00  0.00    -0.201 OA
ATOM     27  O30 ZIN AC000       5.915  -0.835   0.270  0.00  0.00    -0.201 OA
BRANCH  25  28
ATOM     28  N28 ZIN AC000       6.082   1.111   1.779  0.00  0.00    -0.324 N 
ATOM     29  H55 ZIN AC000       5.900   0.974   2.722  0.00  0.00     0.169 HD
ATOM     30  H56 ZIN AC000       6.795   1.709   1.504  0.00  0.00     0.169 HD
ENDBRANCH  25  28
ENDBRANCH  21  25
BRANCH  22  31
ATOM     31  O24 ZIN AC000       3.903   2.998   0.423  0.00  0.00    -0.354 OA
ATOM     32  C25 ZIN AC000       3.265   4.276   0.408  0.00  0.00     0.210 C 
ENDBRANCH  22  31
ENDBRANCH  18  19
ENDBRANCH   1  18
TORSDOF 12
