REMARK  4 active torsions:
REMARK  status: ('A' for Active; 'I' for Inactive)
REMARK    1  A    between atoms: C2_2  and  C4_4 
REMARK       I    between atoms: C4_4  and  N6_6 
REMARK    2  A    between atoms: N6_6  and  C7_7 
REMARK    3  A    between atoms: C10_10  and  N11_11 
REMARK    4  A    between atoms: C14_14  and  C15_15 
ROOT
ATOM      1  C7  ZIN AC000       2.717  -0.643  -2.550  0.00  0.00     0.035 A 
ATOM      2  C8  ZIN AC000       2.090  -1.438  -3.500  0.00  0.00     0.032 A 
ATOM      3  C9  ZIN AC000       2.809  -1.927  -4.573  0.00  0.00     0.039 A 
ATOM      4  C10 ZIN AC000       4.153  -1.626  -4.701  0.00  0.00     0.118 A 
ATOM      5  C14 ZIN AC000       4.780  -0.835  -3.756  0.00  0.00     0.083 A 
ATOM      6  C19 ZIN AC000       4.066  -0.338  -2.684  0.00  0.00     0.048 A 
ENDROOT
BRANCH   1   7
ATOM      7  N6  ZIN AC000       1.991  -0.146  -1.462  0.00  0.00    -0.327 N 
ATOM      8  C4  ZIN AC000       1.016  -0.891  -0.905  0.00  0.00     0.225 C 
ATOM      9  O5  ZIN AC000       0.710  -1.956  -1.399  0.00  0.00    -0.273 OA
ATOM     10  H27 ZIN AC000       2.190   0.735  -1.108  0.00  0.00     0.169 HD
BRANCH   8  11
ATOM     11  C2  ZIN AC000       0.305  -0.401   0.330  0.00  0.00     0.070 C 
ATOM     12  C1  ZIN AC000      -0.377   0.935   0.029  0.00  0.00     0.019 C 
ATOM     13  C3  ZIN AC000      -0.749  -1.427   0.753  0.00  0.00     0.019 C 
ENDBRANCH   8  11
ENDBRANCH   1   7
BRANCH   5  14
ATOM     14  C15 ZIN AC000       6.245  -0.509  -3.900  0.00  0.00     0.419 C 
ATOM     15  F16 ZIN AC000       6.650   0.299  -2.832  0.00  0.00    -0.166 F 
ATOM     16  F17 ZIN AC000       6.989  -1.694  -3.897  0.00  0.00    -0.166 F 
ATOM     17  F18 ZIN AC000       6.455   0.170  -5.104  0.00  0.00    -0.166 F 
ENDBRANCH   5  14
BRANCH   4  18
ATOM     18  N11 ZIN AC000       4.921  -2.152  -5.851  0.00  0.00    -0.115 N 
ATOM     19  O12 ZIN AC000       4.369  -2.849  -6.684  0.00  0.00    -0.532 OA
ATOM     20  O13 ZIN AC000       6.104  -1.888  -5.966  0.00  0.00    -0.532 OA
ENDBRANCH   4  18
TORSDOF 4
