REMARK  8 active torsions:
REMARK  status: ('A' for Active; 'I' for Inactive)
REMARK    1  A    between atoms: C2_2  and  C3_3 
REMARK    2  A    between atoms: C3_3  and  C4_4 
REMARK    3  A    between atoms: C12_12  and  C13_13 
REMARK    4  A    between atoms: C15_15  and  S16_16 
REMARK    5  A    between atoms: S16_16  and  N19_19 
REMARK    6  A    between atoms: N22_22  and  C24_24 
REMARK    7  A    between atoms: C30_30  and  O31_31 
REMARK    8  A    between atoms: O31_31  and  C32_32 
ROOT
ATOM      1  C13 ZIN AC000      -1.378  -3.220   4.774  0.00  0.00     0.046 A 
ATOM      2  C14 ZIN AC000      -1.355  -4.242   5.723  0.00  0.00     0.043 A 
ATOM      3  C15 ZIN AC000      -1.354  -3.932   7.067  0.00  0.00     0.080 A 
ATOM      4  C28 ZIN AC000      -1.376  -2.611   7.479  0.00  0.00     0.028 A 
ATOM      5  C29 ZIN AC000      -1.399  -1.590   6.548  0.00  0.00     0.039 A 
ATOM      6  C30 ZIN AC000      -1.395  -1.884   5.194  0.00  0.00     0.083 A 
ENDROOT
BRANCH   1   7
ATOM      7  C12 ZIN AC000      -1.379  -3.545   3.332  0.00  0.00     0.164 A 
ATOM      8  N11 ZIN AC000      -1.362  -4.871   2.950  0.00  0.00    -0.304 N 
ATOM      9  C9  ZIN AC000      -1.363  -5.208   1.641  0.00  0.00     0.278 A 
ATOM     10  H46 ZIN AC000      -1.350  -5.567   3.626  0.00  0.00     0.171 HD
ATOM     11  C8  ZIN AC000      -1.382  -4.132   0.650  0.00  0.00     0.152 A 
ATOM     12  O10 ZIN AC000      -1.348  -6.375   1.295  0.00  0.00    -0.265 OA
ATOM     13  C6  ZIN AC000      -1.388  -4.080  -0.721  0.00  0.00     0.067 A 
ATOM     14  N35 ZIN AC000      -1.392  -2.821   1.095  0.00  0.00    -0.210 N 
ATOM     15  N5  ZIN AC000      -1.407  -2.793  -1.071  0.00  0.00    -0.236 NA
ATOM     16  C7  ZIN AC000      -1.375  -5.259  -1.660  0.00  0.00     0.073 C 
ATOM     17  C4  ZIN AC000      -1.413  -2.041   0.005  0.00  0.00     0.128 A 
ATOM     18  N34 ZIN AC000      -1.395  -2.570   2.470  0.00  0.00    -0.146 NA
BRANCH  17  19
ATOM     19  C3  ZIN AC000      -1.433  -0.534   0.013  0.00  0.00     0.080 C 
BRANCH  19  20
ATOM     20  C2  ZIN AC000       0.002  -0.004   0.002  0.00  0.00     0.003 C 
ATOM     21  C1  ZIN AC000      -0.019   1.526   0.010  0.00  0.00     0.005 C 
ENDBRANCH  19  20
ENDBRANCH  17  19
ENDBRANCH   1   7
BRANCH   6  22
ATOM     22  O31 ZIN AC000      -1.418  -0.882   4.278  0.00  0.00    -0.351 OA
BRANCH  22  23
ATOM     23  C32 ZIN AC000      -1.446   0.456   4.781  0.00  0.00     0.171 C 
ATOM     24  C33 ZIN AC000      -1.469   1.440   3.610  0.00  0.00     0.034 C 
ENDBRANCH  22  23
ENDBRANCH   6  22
BRANCH   3  25
ATOM     25  S16 ZIN AC000      -1.324  -5.224   8.265  0.00  0.00     0.261 S 
ATOM     26  O17 ZIN AC000      -1.873  -4.678   9.457  0.00  0.00    -0.200 OA
ATOM     27  O18 ZIN AC000      -1.850  -6.378   7.625  0.00  0.00    -0.200 OA
BRANCH  25  28
ATOM     28  N19 ZIN AC000       0.266  -5.554   8.591  0.00  0.00    -0.304 N 
ATOM     29  C27 ZIN AC000       0.981  -4.847   9.665  0.00  0.00     0.163 C 
ATOM     30  C26 ZIN AC000       2.295  -4.305   9.104  0.00  0.00     0.255 C 
ATOM     31  N22 ZIN AC000       3.055  -5.400   8.489  0.00  0.00    -0.068 N 
ATOM     32  C21 ZIN AC000       2.320  -5.931   7.334  0.00  0.00     0.255 C 
ATOM     33  H23 ZIN AC000       3.191  -6.136   9.167  0.00  0.00     0.280 HD
ATOM     34  C20 ZIN AC000       1.005  -6.558   7.811  0.00  0.00     0.163 C 
BRANCH  31  35
ATOM     35  C24 ZIN AC000       4.362  -4.897   8.046  0.00  0.00     0.230 C 
ATOM     36  C25 ZIN AC000       5.178  -4.458   9.264  0.00  0.00     0.034 C 
ENDBRANCH  31  35
ENDBRANCH  25  28
ENDBRANCH   3  25
TORSDOF 8
