REMARK  9 active torsions:
REMARK  status: ('A' for Active; 'I' for Inactive)
REMARK    1  A    between atoms: C2_2  and  C3_3 
REMARK    2  A    between atoms: C3_3  and  C4_4 
REMARK    3  A    between atoms: C4_4  and  N5_5 
REMARK    4  A    between atoms: N5_5  and  C6_6 
REMARK    5  A    between atoms: C8_8  and  C9_9 
REMARK    6  A    between atoms: C13_13  and  S14_14 
REMARK    7  A    between atoms: S14_14  and  N15_15 
REMARK    8  A    between atoms: C18_18  and  O19_19 
REMARK    9  A    between atoms: O19_19  and  C20_20 
ROOT
ATOM      1  C6  <0> d           1.620  -3.901   2.633  0.00  0.00     0.065 A 
ATOM      2  C7  <0> d           1.103  -4.802   1.720  0.00  0.00     0.050 A 
ATOM      3  C8  <0> d           1.254  -6.176   1.937  0.00  0.00     0.044 A 
ATOM      4  C12 <0> d           1.927  -6.631   3.075  0.00  0.00     0.046 A 
ATOM      5  C13 <0> d           2.439  -5.728   3.981  0.00  0.00     0.116 A 
ATOM      6  C18 <0> d           2.296  -4.364   3.764  0.00  0.00     0.125 A 
ENDROOT
BRANCH   6   7
ATOM      7  O19 <0> d           2.803  -3.479   4.660  0.00  0.00    -0.307 OA
BRANCH   7   8
ATOM      8  C20 <0> d           4.079  -3.050   4.479  0.00  0.00     0.076 A 
ATOM      9  C25 <0> d           4.640  -2.145   5.369  0.00  0.00     0.037 A 
ATOM     10  C24 <0> d           5.940  -1.714   5.186  0.00  0.00     0.003 A 
ATOM     11  C23 <0> d           6.678  -2.175   4.112  0.00  0.00     0.000 A 
ATOM     12  C22 <0> d           6.119  -3.072   3.220  0.00  0.00     0.003 A 
ATOM     13  C21 <0> d           4.822  -3.511   3.401  0.00  0.00     0.037 A 
ENDBRANCH   7   8
ENDBRANCH   6   7
BRANCH   1  14
ATOM     14  N5  <0> d           1.471  -2.526   2.420  0.00  0.00    -0.388 N 
ATOM     15  H35 <0> d           1.837  -1.894   3.058  0.00  0.00     0.159 HD
BRANCH  14  16
ATOM     16  C4  <0> d           0.763  -2.041   1.233  0.00  0.00     0.120 C 
BRANCH  16  17
ATOM     17  C3  <0> d           0.742  -0.511   1.242  0.00  0.00     0.019 C 
BRANCH  17  18
ATOM     18  C2  <0> d           0.002  -0.004   0.002  0.00  0.00    -0.003 C 
ATOM     19  C1  <0> d          -0.019   1.526   0.010  0.00  0.00     0.005 C 
ENDBRANCH  17  18
ENDBRANCH  16  17
ENDBRANCH  14  16
ENDBRANCH   1  14
BRANCH   5  20
ATOM     20  S14 <0> d           3.285  -6.305   5.415  0.00  0.00     0.259 S 
ATOM     21  O16 <0> d           2.734  -5.600   6.518  0.00  0.00    -0.201 OA
ATOM     22  O17 <0> d           3.300  -7.724   5.328  0.00  0.00    -0.201 OA
BRANCH  20  23
ATOM     23  N15 <0> d           4.861  -5.812   5.285  0.00  0.00    -0.324 N 
ATOM     24  H38 <0> d           5.148  -5.302   4.512  0.00  0.00     0.169 HD
ATOM     25  H39 <0> d           5.497  -6.034   5.983  0.00  0.00     0.169 HD
ENDBRANCH  20  23
ENDBRANCH   5  20
BRANCH   3  26
ATOM     26  C9  <0> d           0.707  -7.140   0.969  0.00  0.00     0.209 C 
ATOM     27  O10 <0> d           0.119  -6.740  -0.027  0.00  0.00    -0.644 OA
ATOM     28  O11 <0> d           0.839  -8.341   1.159  0.00  0.00    -0.644 OA
ENDBRANCH   3  26
TORSDOF 9
