REMARK  3 active torsions:
REMARK  status: ('A' for Active; 'I' for Inactive)
REMARK    1  A    between atoms: C7_7  and  C8_8 
REMARK    2  A    between atoms: N13_13  and  C14_14 
REMARK    3  A    between atoms: C14_14  and  C15_15 
ROOT
ATOM      1  C8  <0> d           2.320   0.385   0.267  0.00  0.00     0.077 C 
ATOM      2  N9  <0> d           2.626  -0.857   0.402  0.00  0.00    -0.281 NA
ATOM      3  C10 <0> d           4.008  -1.325   0.314  0.00  0.00     0.219 C 
ATOM      4  C11 <0> d           4.801  -0.718   1.439  0.00  0.00     0.100 C 
ATOM      5  S12 <0> d           5.441  -1.678   2.546  0.00  0.00    -0.063 SA
ATOM      6  N13 <0> d           4.984   0.597   1.537  0.00  0.00    -0.331 N 
ATOM      7  C19 <0> d           4.534   1.534   0.621  0.00  0.00     0.048 A 
ATOM      8  C20 <0> d           5.391   2.593   0.314  0.00  0.00     0.032 A 
ATOM      9  C21 <0> d           5.013   3.565  -0.586  0.00  0.00     0.026 A 
ATOM     10  C22 <0> d           3.771   3.501  -1.197  0.00  0.00     0.035 A 
ATOM     11 Cl23 <0> d           3.297   4.727  -2.331  0.00  0.00    -0.084 Cl
ATOM     12  C24 <0> d           2.912   2.464  -0.906  0.00  0.00     0.040 A 
ATOM     13  C25 <0> d           3.283   1.465   0.002  0.00  0.00     0.022 A 
ENDROOT
BRANCH   1  14
ATOM     14  C7  <0> d           0.891   0.755   0.381  0.00  0.00     0.032 A 
ATOM     15  C2  <0> d           0.454   1.552   1.442  0.00  0.00     0.129 A 
ATOM     16  F1  <0> d           1.336   1.992   2.366  0.00  0.00    -0.205 F 
ATOM     17  C3  <0> d          -0.882   1.893   1.541  0.00  0.00     0.043 A 
ATOM     18  C4  <0> d          -1.785   1.442   0.596  0.00  0.00     0.003 A 
ATOM     19  C5  <0> d          -1.358   0.648  -0.454  0.00  0.00     0.001 A 
ATOM     20  C6  <0> d          -0.028   0.299  -0.565  0.00  0.00     0.017 A 
ENDBRANCH   1  14
BRANCH   6  21
ATOM     21  C14 <0> d           5.719   1.091   2.704  0.00  0.00     0.247 C 
BRANCH  21  22
ATOM     22  C15 <0> d           4.729   1.466   3.808  0.00  0.00     0.403 C 
ATOM     23  F16 <0> d           3.901   0.373   4.084  0.00  0.00    -0.169 F 
ATOM     24  F17 <0> d           5.433   1.821   4.964  0.00  0.00    -0.169 F 
ATOM     25  F18 <0> d           3.948   2.548   3.388  0.00  0.00    -0.169 F 
ENDBRANCH  21  22
ENDBRANCH   6  21
TORSDOF 3
