REMARK  4 active torsions:
REMARK  status: ('A' for Active; 'I' for Inactive)
REMARK    1  A    between atoms: C2_2  and  C3_3 
REMARK    2  A    between atoms: C3_3  and  N4_4 
REMARK    3  A    between atoms: N4_4  and  C7_7 
REMARK    4  A    between atoms: C15_14  and  N16_15 
ROOT
ATOM      1  C7  <0> d          -2.792  -2.511   0.015  0.00  0.00     0.191 C 
ATOM      2  C9  <0> d          -2.776  -4.037  -0.114  0.00  0.00     0.039 C 
ATOM      3  C10 <0> d          -4.200  -4.542  -0.357  0.00  0.00     0.062 C 
ATOM      4  C11 <0> d          -5.116  -3.949   0.703  0.00  0.00     0.050 A 
ATOM      5  C12 <0> d          -4.775  -2.881   1.442  0.00  0.00     0.013 A 
ATOM      6  C13 <0> d          -3.470  -2.127   1.335  0.00  0.00     0.081 C 
ATOM      7  S14 <0> d          -6.096  -2.512   2.544  0.00  0.00    -0.055 SA
ATOM      8  C15 <0> d          -6.997  -3.823   1.920  0.00  0.00     0.165 A 
ATOM      9  N17 <0> d          -6.323  -4.424   0.994  0.00  0.00    -0.228 NA
ENDROOT
BRANCH   1  10
ATOM     10  N4  <0> d          -1.413  -2.002   0.005  0.00  0.00    -0.071 N 
ATOM     11  H5  <0> d          -0.941  -2.328  -0.825  0.00  0.00     0.277 HD
ATOM     12  H6  <0> d          -0.925  -2.337   0.822  0.00  0.00     0.277 HD
BRANCH  10  13
ATOM     13  C3  <0> d          -1.433  -0.534   0.013  0.00  0.00     0.232 C 
BRANCH  13  14
ATOM     14  C2  <0> d           0.002  -0.004   0.002  0.00  0.00     0.023 C 
ATOM     15  C1  <0> d          -0.019   1.526   0.010  0.00  0.00     0.007 C 
ENDBRANCH  13  14
ENDBRANCH  10  13
ENDBRANCH   1  10
BRANCH   8  16
ATOM     16  N16 <0> d          -8.265  -4.188   2.343  0.00  0.00    -0.378 N 
ATOM     17  H31 <0> d          -8.706  -3.685   3.045  0.00  0.00     0.158 HD
ATOM     18  H32 <0> d          -8.712  -4.948   1.937  0.00  0.00     0.158 HD
ENDBRANCH   8  16
TORSDOF 4
