REMARK  2 active torsions:
REMARK  status: ('A' for Active; 'I' for Inactive)
REMARK    1  A    between atoms: O2_2  and  C3_3 
REMARK    2  A    between atoms: C3_3  and  C5_5 
ROOT
ATOM      1  C5  ZIN AC000      -1.244  -2.135   0.003  0.00  0.00     0.097 C 
ATOM      2  C7  ZIN AC000      -0.674  -2.666  -1.318  0.00  0.00     0.050 C 
ATOM      3  C8  ZIN AC000      -1.531  -2.187  -2.474  0.00  0.00    -0.064 C 
ATOM      4  C9  ZIN AC000      -0.920  -1.603  -3.503  0.00  0.00     0.053 C 
ATOM      5  C10 ZIN AC000      -1.696  -1.119  -4.649  0.00  0.00     0.149 C 
ATOM      6  O11 ZIN AC000      -1.247  -0.293  -5.417  0.00  0.00    -0.293 OA
ATOM      7  C12 ZIN AC000      -3.084  -1.698  -4.830  0.00  0.00     0.084 C 
ATOM      8  C13 ZIN AC000      -3.787  -1.634  -3.474  0.00  0.00     0.025 C 
ATOM      9  C14 ZIN AC000      -3.018  -2.400  -2.415  0.00  0.00     0.014 C 
ATOM     10  C15 ZIN AC000      -3.307  -3.893  -2.580  0.00  0.00     0.023 C 
ATOM     11  C16 ZIN AC000      -3.503  -1.975  -1.021  0.00  0.00     0.103 A 
ATOM     12  O17 ZIN AC000      -3.892  -0.604  -0.894  0.00  0.00    -0.368 OA
ATOM     13  C18 ZIN AC000      -4.947  -1.573  -0.808  0.00  0.00     0.159 A 
ATOM     14  C20 ZIN AC000      -5.603  -1.692   0.576  0.00  0.00     0.047 C 
ATOM     15  C21 ZIN AC000      -4.795  -2.666   1.420  0.00  0.00    -0.006 C 
ATOM     16  C22 ZIN AC000      -4.877  -4.075   0.830  0.00  0.00     0.019 C 
ATOM     17  C23 ZIN AC000      -3.323  -2.157   1.446  0.00  0.00     0.005 C 
ATOM     18  C25 ZIN AC000      -2.743  -2.897   2.664  0.00  0.00     0.009 C 
ATOM     19  C26 ZIN AC000      -3.896  -2.857   3.700  0.00  0.00     0.040 C 
ATOM     20  C27 ZIN AC000      -5.193  -2.684   2.892  0.00  0.00     0.079 C 
ATOM     21  C28 ZIN AC000      -5.893  -1.373   3.288  0.00  0.00     0.049 C 
ATOM     22  C29 ZIN AC000      -6.911  -1.873   4.342  0.00  0.00     0.114 C 
ATOM     23  C30 ZIN AC000      -7.110  -3.333   3.993  0.00  0.00     0.259 C 
ATOM     24  O31 ZIN AC000      -8.020  -4.021   4.389  0.00  0.00    -0.265 OA
ATOM     25  O32 ZIN AC000      -6.129  -3.750   3.180  0.00  0.00    -0.309 OA
ATOM     26  C33 ZIN AC000      -2.695  -2.592   0.131  0.00  0.00     0.043 C 
ENDROOT
BRANCH   1  27
ATOM     27  C3  ZIN AC000      -1.185  -0.630   0.010  0.00  0.00     0.263 C 
ATOM     28  O4  ZIN AC000      -1.152  -0.021  -1.033  0.00  0.00    -0.265 OA
BRANCH  27  29
ATOM     29  O2  ZIN AC000      -1.171   0.036   1.176  0.00  0.00    -0.326 OA
ATOM     30  C1  ZIN AC000      -1.114   1.485   1.107  0.00  0.00     0.213 C 
ENDBRANCH  27  29
ENDBRANCH   1  27
TORSDOF 2
