REMARK  19 active torsions:
REMARK  status: ('A' for Active; 'I' for Inactive)
REMARK    1  A    between atoms: O2_2  and  C3_3 
REMARK       I    between atoms: C3_3  and  N5_5 
REMARK    2  A    between atoms: N5_5  and  C6_6 
REMARK    3  A    between atoms: C6_6  and  C8_7 
REMARK    4  A    between atoms: C6_6  and  C52_48 
REMARK       I    between atoms: C8_7  and  N10_9 
REMARK    5  A    between atoms: N10_9  and  C11_10 
REMARK    6  A    between atoms: C11_10  and  C13_11 
REMARK    7  A    between atoms: C11_10  and  C20_18 
REMARK    8  A    between atoms: C13_11  and  C14_12 
REMARK    9  A    between atoms: C20_18  and  O22_19 
REMARK   10  A    between atoms: C20_18  and  C23_20 
REMARK   11  A    between atoms: C23_20  and  N24_21 
REMARK   12  A    between atoms: N24_21  and  C25_22 
REMARK   13  A    between atoms: N24_21  and  N38_35 
REMARK   14  A    between atoms: C25_22  and  C26_23 
REMARK   15  A    between atoms: C29_26  and  C30_27 
REMARK       I    between atoms: N38_35  and  C39_36 
REMARK   16  A    between atoms: C39_36  and  C41_38 
REMARK   17  A    between atoms: C41_38  and  N43_39 
REMARK   18  A    between atoms: C41_38  and  C48_44 
REMARK       I    between atoms: N43_39  and  C44_40 
REMARK   19  A    between atoms: C44_40  and  O46_42 
ROOT
ATOM      1  N24 ZIN AC000       3.146  -7.353  -4.418  0.00  0.00    -0.222 NA
ENDROOT
BRANCH   1   2
ATOM      2  C23 ZIN AC000       2.164  -6.350  -3.986  0.00  0.00     0.147 C 
BRANCH   2   3
ATOM      3  C20 ZIN AC000       1.271  -5.968  -5.168  0.00  0.00     0.156 C 
BRANCH   3   4
ATOM      4  C11 ZIN AC000       0.248  -4.923  -4.719  0.00  0.00     0.118 C 
BRANCH   4   5
ATOM      5  N10 ZIN AC000       0.948  -3.732  -4.232  0.00  0.00    -0.352 N 
ATOM      6  C8  ZIN AC000       0.347  -2.912  -3.347  0.00  0.00     0.241 C 
ATOM      7  O9  ZIN AC000      -0.735  -3.205  -2.886  0.00  0.00    -0.271 OA
ATOM      8  H60 ZIN AC000       1.844  -3.534  -4.546  0.00  0.00     0.163 HD
BRANCH   6   9
ATOM      9  C6  ZIN AC000       1.021  -1.630  -2.931  0.00  0.00     0.186 C 
BRANCH   9  10
ATOM     10  N5  ZIN AC000       0.008  -0.664  -2.498  0.00  0.00    -0.323 N 
ATOM     11  C3  ZIN AC000       0.266   0.657  -2.561  0.00  0.00     0.360 C 
ATOM     12  O4  ZIN AC000       1.339   1.048  -2.978  0.00  0.00    -0.239 OA
ATOM     13  H59 ZIN AC000      -0.848  -0.976  -2.165  0.00  0.00     0.165 HD
BRANCH  11  14
ATOM     14  O2  ZIN AC000      -0.665   1.544  -2.163  0.00  0.00    -0.309 OA
ATOM     15  C1  ZIN AC000      -0.319   2.951  -2.259  0.00  0.00     0.215 C 
ENDBRANCH  11  14
ENDBRANCH   9  10
BRANCH   9  16
ATOM     16  C52 ZIN AC000       1.985  -1.911  -1.776  0.00  0.00    -0.022 C 
ATOM     17  C53 ZIN AC000       1.226  -2.587  -0.633  0.00  0.00     0.017 C 
ATOM     18  C54 ZIN AC000       3.105  -2.833  -2.260  0.00  0.00     0.017 C 
ATOM     19  C55 ZIN AC000       2.586  -0.594  -1.281  0.00  0.00     0.017 C 
ENDBRANCH   9  16
ENDBRANCH   6   9
ENDBRANCH   4   5
BRANCH   4  20
ATOM     20  C13 ZIN AC000      -0.646  -4.542  -5.901  0.00  0.00     0.066 C 
BRANCH  20  21
ATOM     21  C14 ZIN AC000      -1.729  -3.607  -5.431  0.00  0.00    -0.056 A 
ATOM     22  C19 ZIN AC000      -1.519  -2.241  -5.448  0.00  0.00     0.007 A 
ATOM     23  C18 ZIN AC000      -2.514  -1.382  -5.020  0.00  0.00     0.001 A 
ATOM     24  C17 ZIN AC000      -3.718  -1.891  -4.567  0.00  0.00     0.000 A 
ATOM     25  C16 ZIN AC000      -3.926  -3.257  -4.546  0.00  0.00     0.001 A 
ATOM     26  C15 ZIN AC000      -2.932  -4.115  -4.977  0.00  0.00     0.007 A 
ENDBRANCH  20  21
ENDBRANCH   4  20
ENDBRANCH   3   4
BRANCH   3  27
ATOM     27  O22 ZIN AC000       2.075  -5.427  -6.218  0.00  0.00    -0.392 OA
ATOM     28  H68 ZIN AC000       2.569  -4.634  -5.966  0.00  0.00     0.210 HD
ENDBRANCH   3  27
ENDBRANCH   2   3
ENDBRANCH   1   2
BRANCH   1  29
ATOM     29  C25 ZIN AC000       4.097  -7.656  -3.340  0.00  0.00     0.152 C 
BRANCH  29  30
ATOM     30  C26 ZIN AC000       5.175  -8.571  -3.864  0.00  0.00    -0.043 A 
ATOM     31  C37 ZIN AC000       6.266  -8.040  -4.528  0.00  0.00     0.009 A 
ATOM     32  C36 ZIN AC000       7.258  -8.873  -5.005  0.00  0.00     0.014 A 
ATOM     33  C29 ZIN AC000       7.153 -10.251  -4.827  0.00  0.00    -0.007 A 
ATOM     34  C28 ZIN AC000       6.049 -10.780  -4.162  0.00  0.00     0.014 A 
ATOM     35  C27 ZIN AC000       5.066  -9.938  -3.684  0.00  0.00     0.009 A 
BRANCH  33  36
ATOM     36  C30 ZIN AC000       8.213 -11.151  -5.343  0.00  0.00     0.066 A 
ATOM     37  N35 ZIN AC000       8.106 -12.462  -5.169  0.00  0.00    -0.260 NA
ATOM     38  C34 ZIN AC000       9.022 -13.296  -5.617  0.00  0.00     0.117 A 
ATOM     39  C33 ZIN AC000      10.143 -12.829  -6.279  0.00  0.00     0.019 A 
ATOM     40  C32 ZIN AC000      10.298 -11.465  -6.478  0.00  0.00     0.004 A 
ATOM     41  C31 ZIN AC000       9.316 -10.613  -6.002  0.00  0.00     0.032 A 
ENDBRANCH  33  36
ENDBRANCH  29  30
ENDBRANCH   1  29
BRANCH   1  42
ATOM     42  N38 ZIN AC000       2.526  -8.488  -4.857  0.00  0.00    -0.287 N 
ATOM     43  C39 ZIN AC000       2.695  -8.899  -6.130  0.00  0.00     0.255 C 
ATOM     44  O40 ZIN AC000       3.466  -8.312  -6.859  0.00  0.00    -0.270 OA
ATOM     45  H81 ZIN AC000       1.963  -8.998  -4.253  0.00  0.00     0.184 HD
BRANCH  43  46
ATOM     46  C41 ZIN AC000       1.926 -10.088  -6.646  0.00  0.00     0.187 C 
BRANCH  46  47
ATOM     47  N43 ZIN AC000       2.117 -10.202  -8.094  0.00  0.00    -0.323 N 
ATOM     48  C44 ZIN AC000       1.189 -10.823  -8.849  0.00  0.00     0.360 C 
ATOM     49  O45 ZIN AC000       0.195 -11.289  -8.329  0.00  0.00    -0.239 OA
ATOM     50  H82 ZIN AC000       2.910  -9.830  -8.509  0.00  0.00     0.165 HD
BRANCH  48  51
ATOM     51  O46 ZIN AC000       1.365 -10.928 -10.180  0.00  0.00    -0.309 OA
ATOM     52  C47 ZIN AC000       0.325 -11.610 -10.930  0.00  0.00     0.215 C 
ENDBRANCH  48  51
ENDBRANCH  46  47
BRANCH  46  53
ATOM     53  C48 ZIN AC000       2.435 -11.360  -5.963  0.00  0.00    -0.022 C 
ATOM     54  C49 ZIN AC000       2.145 -11.284  -4.463  0.00  0.00     0.017 C 
ATOM     55  C50 ZIN AC000       1.725 -12.577  -6.559  0.00  0.00     0.017 C 
ATOM     56  C51 ZIN AC000       3.943 -11.489  -6.185  0.00  0.00     0.017 C 
ENDBRANCH  46  53
ENDBRANCH  43  46
ENDBRANCH   1  42
TORSDOF 19
