REMARK  7 active torsions:
REMARK  status: ('A' for Active; 'I' for Inactive)
REMARK    1  A    between atoms: C7_7  and  C8_8 
REMARK    2  A    between atoms: C10_10  and  N11_11 
REMARK    3  A    between atoms: C20_20  and  N21_21 
REMARK       I    between atoms: N21_21  and  C23_23 
REMARK    4  A    between atoms: C23_23  and  C25_25 
REMARK    5  A    between atoms: C25_25  and  C28_28 
REMARK    6  A    between atoms: C30_30  and  C31_31 
REMARK    7  A    between atoms: C36_36  and  C37_37 
ROOT
ATOM      1  N21 ZIN AC000      -1.727   0.337   1.761  0.00  0.00    -0.319 N 
ATOM      2  C22 ZIN AC000      -2.076   1.342   0.753  0.00  0.00     0.159 C 
ATOM      3  C23 ZIN AC000      -2.686  -0.445   2.293  0.00  0.00     0.236 C 
ATOM      4  O24 ZIN AC000      -2.414  -1.210   3.194  0.00  0.00    -0.272 OA
ENDROOT
BRANCH   1   5
ATOM      5  C20 ZIN AC000      -0.396   0.190   2.170  0.00  0.00     0.065 A 
ATOM      6  C8  ZIN AC000       0.488  -0.623   1.441  0.00  0.00     0.006 A 
ATOM      7  C9  ZIN AC000       1.802  -0.737   1.891  0.00  0.00     0.059 A 
ATOM      8  C10 ZIN AC000       2.184  -0.052   3.037  0.00  0.00     0.106 A 
ATOM      9  N18 ZIN AC000       1.318   0.700   3.699  0.00  0.00    -0.246 NA
ATOM     10  C19 ZIN AC000       0.065   0.834   3.306  0.00  0.00     0.149 A 
BRANCH   6  11
ATOM     11  C7  ZIN AC000       0.036  -1.336   0.221  0.00  0.00    -0.018 A 
ATOM     12  C2  ZIN AC000       0.361  -0.840  -1.040  0.00  0.00    -0.051 A 
ATOM     13  C1  ZIN AC000       1.178   0.420  -1.168  0.00  0.00     0.049 C 
ATOM     14  C3  ZIN AC000      -0.062  -1.507  -2.171  0.00  0.00     0.007 A 
ATOM     15  C4  ZIN AC000      -0.811  -2.664  -2.055  0.00  0.00     0.001 A 
ATOM     16  C5  ZIN AC000      -1.141  -3.158  -0.806  0.00  0.00     0.001 A 
ATOM     17  C6  ZIN AC000      -0.724  -2.499   0.332  0.00  0.00     0.013 A 
ENDBRANCH   6  11
BRANCH   8  18
ATOM     18  N11 ZIN AC000       3.494  -0.157   3.497  0.00  0.00    -0.265 NA
ATOM     19  C17 ZIN AC000       3.690   0.640   4.715  0.00  0.00     0.127 C 
ATOM     20  C16 ZIN AC000       5.158   0.562   5.142  0.00  0.00     0.286 C 
ATOM     21  N14 ZIN AC000       5.525  -0.843   5.370  0.00  0.00     0.086 N 
ATOM     22  C13 ZIN AC000       5.329  -1.640   4.151  0.00  0.00     0.286 C 
ATOM     23  C15 ZIN AC000       6.908  -0.954   5.855  0.00  0.00     0.310 C 
ATOM     24  C12 ZIN AC000       3.861  -1.562   3.724  0.00  0.00     0.127 C 
ENDBRANCH   8  18
ENDBRANCH   1   5
BRANCH   3  25
ATOM     25  C25 ZIN AC000      -4.097  -0.368   1.770  0.00  0.00     0.061 C 
ATOM     26  C26 ZIN AC000      -4.096  -0.620   0.260  0.00  0.00     0.030 C 
ATOM     27  C27 ZIN AC000      -4.956  -1.429   2.462  0.00  0.00     0.030 C 
BRANCH  25  28
ATOM     28  C28 ZIN AC000      -4.664   0.999   2.051  0.00  0.00    -0.039 A 
ATOM     29  C41 ZIN AC000      -5.898   1.355   1.538  0.00  0.00     0.024 A 
ATOM     30  C36 ZIN AC000      -6.420   2.608   1.800  0.00  0.00     0.049 A 
ATOM     31  C35 ZIN AC000      -5.704   3.509   2.566  0.00  0.00     0.032 A 
ATOM     32  C30 ZIN AC000      -4.468   3.155   3.074  0.00  0.00     0.049 A 
ATOM     33  C29 ZIN AC000      -3.948   1.900   2.816  0.00  0.00     0.024 A 
BRANCH  30  34
ATOM     34  C37 ZIN AC000      -7.767   2.994   1.246  0.00  0.00     0.417 C 
ATOM     35  F38 ZIN AC000      -8.076   4.300   1.639  0.00  0.00    -0.166 F 
ATOM     36  F39 ZIN AC000      -7.736   2.921  -0.151  0.00  0.00    -0.166 F 
ATOM     37  F40 ZIN AC000      -8.741   2.117   1.736  0.00  0.00    -0.166 F 
ENDBRANCH  30  34
BRANCH  32  38
ATOM     38  C31 ZIN AC000      -3.687   4.137   3.909  0.00  0.00     0.417 C 
ATOM     39  F32 ZIN AC000      -2.865   4.906   3.077  0.00  0.00    -0.166 F 
ATOM     40  F33 ZIN AC000      -4.573   4.976   4.592  0.00  0.00    -0.166 F 
ATOM     41  F34 ZIN AC000      -2.898   3.442   4.831  0.00  0.00    -0.166 F 
ENDBRANCH  32  38
ENDBRANCH  25  28
ENDBRANCH   3  25
TORSDOF 7
