REMARK  11 active torsions:
REMARK  status: ('A' for Active; 'I' for Inactive)
REMARK    1  A    between atoms: C3_3  and  C4_4 
REMARK    2  A    between atoms: C4_4  and  C5_5 
REMARK    3  A    between atoms: C5_5  and  C8_7 
REMARK    4  A    between atoms: C8_7  and  O10_8 
REMARK    5  A    between atoms: C8_7  and  C11_9 
REMARK    6  A    between atoms: C12_10  and  C13_11 
REMARK    7  A    between atoms: C15_12  and  O17_13 
REMARK    8  A    between atoms: C23_18  and  C24_19 
REMARK    9  A    between atoms: C24_19  and  C25_20 
REMARK   10  A    between atoms: C25_20  and  C26_21 
REMARK   11  A    between atoms: C26_21  and  C27_22 
ROOT
ATOM      1  C1  ZIN AC000      -0.018   1.468   0.010  0.00  0.00     0.112 C 
ATOM      2  C2  ZIN AC000       0.002  -0.004   0.002  0.00  0.00    -0.111 C 
ATOM      3  C3  ZIN AC000       0.018  -1.178  -0.004  0.00  0.00    -0.107 C 
ENDROOT
BRANCH   3   4
ATOM      4  C4  ZIN AC000       0.038  -2.650  -0.013  0.00  0.00     0.101 C 
BRANCH   4   5
ATOM      5  C5  ZIN AC000      -1.397  -3.179  -0.002  0.00  0.00     0.025 C 
ATOM      6  C7  ZIN AC000      -2.074  -2.791   1.314  0.00  0.00     0.014 C 
BRANCH   5   7
ATOM      7  C8  ZIN AC000      -1.380  -4.703  -0.136  0.00  0.00     0.145 C 
BRANCH   7   8
ATOM      8  O10 ZIN AC000      -0.748  -5.066  -1.365  0.00  0.00    -0.391 OA
ATOM      9  H41 ZIN AC000      -1.187  -4.715  -2.152  0.00  0.00     0.210 HD
ENDBRANCH   7   8
BRANCH   7  10
ATOM     10  C11 ZIN AC000      -2.794  -5.225  -0.125  0.00  0.00     0.001 C 
ATOM     11  C12 ZIN AC000      -3.221  -5.979  -1.108  0.00  0.00    -0.021 C 
BRANCH  11  12
ATOM     12  C13 ZIN AC000      -4.635  -6.500  -1.097  0.00  0.00     0.041 C 
ATOM     13  C31 ZIN AC000      -4.633  -8.036  -1.130  0.00  0.00     0.004 C 
ATOM     14  C19 ZIN AC000      -5.733  -8.466  -2.124  0.00  0.00    -0.003 C 
ATOM     15  C30 ZIN AC000      -5.083  -8.594   0.252  0.00  0.00     0.039 C 
ATOM     16  C18 ZIN AC000      -6.377  -7.181  -2.667  0.00  0.00     0.037 C 
ATOM     17  C21 ZIN AC000      -6.777  -9.267  -1.329  0.00  0.00     0.039 C 
ATOM     18  C15 ZIN AC000      -5.377  -6.049  -2.369  0.00  0.00     0.126 C 
ATOM     19  C22 ZIN AC000      -6.096  -9.684  -0.041  0.00  0.00    -0.083 C 
ATOM     20  C23 ZIN AC000      -6.331 -10.759   0.669  0.00  0.00    -0.024 C 
BRANCH  18  21
ATOM     21  O17 ZIN AC000      -6.069  -4.822  -2.131  0.00  0.00    -0.395 OA
ATOM     22  H44 ZIN AC000      -6.555  -4.489  -2.898  0.00  0.00     0.210 HD
ENDBRANCH  18  21
BRANCH  20  23
ATOM     23  C24 ZIN AC000      -7.384 -11.741   0.222  0.00  0.00     0.028 C 
BRANCH  23  24
ATOM     24  C25 ZIN AC000      -6.765 -13.136   0.109  0.00  0.00     0.014 C 
BRANCH  24  25
ATOM     25  C26 ZIN AC000      -7.833 -14.132  -0.345  0.00  0.00     0.113 C 
BRANCH  25  26
ATOM     26  C27 ZIN AC000      -7.223 -15.506  -0.457  0.00  0.00     0.172 C 
ATOM     27  O28 ZIN AC000      -6.044 -15.672  -0.198  0.00  0.00    -0.648 OA
ATOM     28  O29 ZIN AC000      -7.910 -16.451  -0.806  0.00  0.00    -0.648 OA
ENDBRANCH  25  26
ENDBRANCH  24  25
ENDBRANCH  23  24
ENDBRANCH  20  23
ENDBRANCH  11  12
ENDBRANCH   7  10
ENDBRANCH   5   7
ENDBRANCH   4   5
ENDBRANCH   3   4
TORSDOF 11
