REMARK  7 active torsions:
REMARK  status: ('A' for Active; 'I' for Inactive)
REMARK    1  A    between atoms: C2_2  and  C3_3 
REMARK    2  A    between atoms: C6_6  and  C7_7 
REMARK    3  A    between atoms: C7_7  and  C8_8 
REMARK    4  A    between atoms: C8_8  and  O9_9 
REMARK    5  A    between atoms: O9_9  and  C10_10 
REMARK    6  A    between atoms: C13_13  and  C14_14 
REMARK    7  A    between atoms: C14_14  and  C15_15 
ROOT
ATOM      1  C10 ZIN AC000      -8.476  -0.805  -1.709  0.00  0.00     0.068 A 
ATOM      2  C11 ZIN AC000      -8.075   0.358  -2.350  0.00  0.00     0.037 A 
ATOM      3  C12 ZIN AC000      -8.990   1.097  -3.075  0.00  0.00     0.010 A 
ATOM      4  C13 ZIN AC000     -10.305   0.679  -3.160  0.00  0.00    -0.056 A 
ATOM      5  C23 ZIN AC000     -10.707  -0.480  -2.521  0.00  0.00     0.010 A 
ATOM      6  C24 ZIN AC000      -9.794  -1.225  -1.800  0.00  0.00     0.037 A 
ENDROOT
BRANCH   1   7
ATOM      7  O9  ZIN AC000      -7.577  -1.533  -0.996  0.00  0.00    -0.351 OA
BRANCH   7   8
ATOM      8  C8  ZIN AC000      -6.236  -1.040  -0.945  0.00  0.00     0.181 C 
BRANCH   8   9
ATOM      9  C7  ZIN AC000      -5.377  -1.986  -0.104  0.00  0.00     0.086 C 
BRANCH   9  10
ATOM     10  C6  ZIN AC000      -3.963  -1.466  -0.050  0.00  0.00     0.036 A 
ATOM     11  C5  ZIN AC000      -3.362  -1.249   1.175  0.00  0.00     0.028 A 
ATOM     12  C4  ZIN AC000      -2.061  -0.770   1.213  0.00  0.00     0.010 A 
ATOM     13  C3  ZIN AC000      -1.412  -0.526   0.013  0.00  0.00    -0.041 A 
ATOM     14  C26 ZIN AC000      -2.080  -0.761  -1.174  0.00  0.00     0.124 A 
ATOM     15  N25 ZIN AC000      -3.315  -1.222  -1.173  0.00  0.00    -0.265 NA
BRANCH  13  16
ATOM     16  C2  ZIN AC000       0.002  -0.004   0.002  0.00  0.00     0.035 C 
ATOM     17  C1  ZIN AC000      -0.019   1.526   0.010  0.00  0.00     0.010 C 
ENDBRANCH  13  16
ENDBRANCH   9  10
ENDBRANCH   8   9
ENDBRANCH   7   8
ENDBRANCH   1   7
BRANCH   4  18
ATOM     18  C14 ZIN AC000     -11.302   1.487  -3.950  0.00  0.00     0.063 C 
BRANCH  18  19
ATOM     19  C15 ZIN AC000     -11.320   0.998  -5.400  0.00  0.00     0.153 A 
ATOM     20  C21 ZIN AC000     -12.267   1.833  -6.234  0.00  0.00     0.239 A 
ATOM     21  N20 ZIN AC000     -13.270   1.137  -6.754  0.00  0.00    -0.287 N 
ATOM     22  O22 ZIN AC000     -12.126   3.024  -6.409  0.00  0.00    -0.272 OA
ATOM     23  C18 ZIN AC000     -13.390  -0.174  -6.538  0.00  0.00     0.287 A 
ATOM     24  H42 ZIN AC000     -13.927   1.591  -7.303  0.00  0.00     0.172 HD
ATOM     25  S17 ZIN AC000     -12.038  -0.676  -5.507  0.00  0.00    -0.054 SA
ATOM     26  O19 ZIN AC000     -14.269  -0.895  -6.970  0.00  0.00    -0.260 OA
ENDBRANCH  18  19
ENDBRANCH   4  18
TORSDOF 7
