REMARK  10 active torsions:
REMARK  status: ('A' for Active; 'I' for Inactive)
REMARK    1  A    between atoms: O1_1  and  C2_2 
REMARK    2  A    between atoms: C2_2  and  C3_3 
REMARK    3  A    between atoms: C6_5  and  C8_6 
REMARK    4  A    between atoms: C13_11  and  C14_12 
REMARK    5  A    between atoms: C14_12  and  C15_13 
REMARK    6  A    between atoms: C18_16  and  O19_17 
REMARK    7  A    between atoms: O19_17  and  C20_18 
REMARK    8  A    between atoms: C29_26  and  O31_27 
REMARK    9  A    between atoms: C32_28  and  O34_29 
REMARK   10  A    between atoms: C35_30  and  O37_31 
ROOT
ATOM      1  C8  ZIN AC000      -4.797  -0.268  -1.975  0.00  0.00    -0.026 A 
ATOM      2  C9  ZIN AC000      -3.826  -0.371  -2.954  0.00  0.00     0.011 A 
ATOM      3  C10 ZIN AC000      -4.085   0.082  -4.234  0.00  0.00     0.025 A 
ATOM      4  C11 ZIN AC000      -5.315   0.639  -4.535  0.00  0.00     0.040 A 
ATOM      5 Cl12 ZIN AC000      -5.640   1.207  -6.143  0.00  0.00    -0.084 Cl
ATOM      6  C13 ZIN AC000      -6.285   0.742  -3.555  0.00  0.00    -0.032 A 
ATOM      7  C28 ZIN AC000      -6.028   0.284  -2.277  0.00  0.00     0.019 A 
ENDROOT
BRANCH   1   8
ATOM      8  C6  ZIN AC000      -4.514  -0.762  -0.580  0.00  0.00     0.186 C 
ATOM      9  O5  ZIN AC000      -3.178  -0.415  -0.212  0.00  0.00    -0.368 OA
ATOM     10  C3  ZIN AC000      -2.813  -0.816   1.110  0.00  0.00     0.177 C 
ATOM     11  C35 ZIN AC000      -2.906  -2.340   1.223  0.00  0.00     0.180 C 
ATOM     12  C32 ZIN AC000      -4.329  -2.784   0.871  0.00  0.00     0.181 C 
ATOM     13  C29 ZIN AC000      -4.676  -2.284  -0.534  0.00  0.00     0.182 C 
BRANCH  10  14
ATOM     14  C2  ZIN AC000      -1.379  -0.370   1.401  0.00  0.00     0.198 C 
BRANCH  14  15
ATOM     15  O1  ZIN AC000      -1.317   1.058   1.410  0.00  0.00    -0.398 OA
ATOM     16  H38 ZIN AC000      -0.436   1.412   1.589  0.00  0.00     0.209 HD
ENDBRANCH  14  15
ENDBRANCH  10  14
BRANCH  11  17
ATOM     17  O37 ZIN AC000      -2.598  -2.741   2.560  0.00  0.00    -0.390 OA
ATOM     18  H58 ZIN AC000      -2.642  -3.696   2.704  0.00  0.00     0.210 HD
ENDBRANCH  11  17
BRANCH  12  19
ATOM     19  O34 ZIN AC000      -4.408  -4.211   0.903  0.00  0.00    -0.390 OA
ATOM     20  H57 ZIN AC000      -4.201  -4.597   1.765  0.00  0.00     0.210 HD
ENDBRANCH  12  19
BRANCH  13  21
ATOM     21  O31 ZIN AC000      -6.027  -2.630  -0.846  0.00  0.00    -0.390 OA
ATOM     22  H56 ZIN AC000      -6.201  -3.581  -0.836  0.00  0.00     0.210 HD
ENDBRANCH  13  21
ENDBRANCH   1   8
BRANCH   6  23
ATOM     23  C14 ZIN AC000      -7.626   1.348  -3.882  0.00  0.00     0.078 C 
BRANCH  23  24
ATOM     24  C15 ZIN AC000      -7.512   2.851  -3.876  0.00  0.00    -0.054 A 
ATOM     25  C27 ZIN AC000      -7.183   3.523  -5.038  0.00  0.00     0.010 A 
ATOM     26  C26 ZIN AC000      -7.083   4.901  -5.036  0.00  0.00     0.037 A 
ATOM     27  C18 ZIN AC000      -7.304   5.610  -3.864  0.00  0.00     0.069 A 
ATOM     28  C17 ZIN AC000      -7.629   4.932  -2.698  0.00  0.00     0.037 A 
ATOM     29  C16 ZIN AC000      -7.733   3.555  -2.706  0.00  0.00     0.010 A 
BRANCH  27  30
ATOM     30  O19 ZIN AC000      -7.201   6.965  -3.858  0.00  0.00    -0.344 OA
BRANCH  30  31
ATOM     31  C20 ZIN AC000      -7.324   7.619  -2.594  0.00  0.00     0.154 C 
ATOM     32  C25 ZIN AC000      -8.807   7.877  -2.251  0.00  0.00     0.200 C 
ATOM     33  O24 ZIN AC000      -8.892   9.185  -1.665  0.00  0.00    -0.389 OA
ATOM     34  C23 ZIN AC000      -7.580   9.763  -1.562  0.00  0.00     0.170 C 
ATOM     35  C22 ZIN AC000      -6.741   9.057  -2.656  0.00  0.00     0.061 C 
ENDBRANCH  30  31
ENDBRANCH  27  30
ENDBRANCH  23  24
ENDBRANCH   6  23
TORSDOF 10
