REMARK  6 active torsions:
REMARK  status: ('A' for Active; 'I' for Inactive)
REMARK    1  A    between atoms: C2_2  and  C4_3 
REMARK    2  A    between atoms: C2_2  and  C11_10 
REMARK    3  A    between atoms: C11_10  and  O12_11 
REMARK    4  A    between atoms: C11_10  and  C13_12 
REMARK    5  A    between atoms: C11_10  and  C19_18 
REMARK    6  A    between atoms: C13_12  and  N14_13 
ROOT
ATOM      1  C11 ZIN AC000      -1.433  -0.534   0.013  0.00  0.00     0.115 C 
ENDROOT
BRANCH   1   2
ATOM      2  C2  ZIN AC000       0.002  -0.004   0.002  0.00  0.00     0.078 C 
ATOM      3  C1  ZIN AC000      -0.019   1.526   0.010  0.00  0.00     0.020 C 
BRANCH   2   4
ATOM      4  C4  ZIN AC000       0.731  -0.503   1.223  0.00  0.00     0.083 A 
ATOM      5  C9  ZIN AC000       1.870  -1.286   1.092  0.00  0.00     0.159 A 
ATOM      6  C8  ZIN AC000       2.510  -1.718   2.245  0.00  0.00     0.162 A 
ATOM      7  F10 ZIN AC000       2.350  -1.611  -0.129  0.00  0.00    -0.202 F 
ATOM      8  N7  ZIN AC000       2.009  -1.380   3.423  0.00  0.00    -0.251 NA
ATOM      9  C6  ZIN AC000       0.922  -0.639   3.508  0.00  0.00     0.232 A 
ATOM     10  N5  ZIN AC000       0.291  -0.206   2.435  0.00  0.00    -0.243 NA
ENDBRANCH   2   4
ENDBRANCH   1   2
BRANCH   1  11
ATOM     11  O12 ZIN AC000      -2.102  -0.073   1.189  0.00  0.00    -0.382 OA
ATOM     12  H32 ZIN AC000      -2.153   0.890   1.260  0.00  0.00     0.211 HD
ENDBRANCH   1  11
BRANCH   1  13
ATOM     13  C13 ZIN AC000      -1.413  -2.063   0.004  0.00  0.00     0.196 C 
BRANCH  13  14
ATOM     14  N14 ZIN AC000      -2.783  -2.570  -0.106  0.00  0.00    -0.259 N 
ATOM     15  N18 ZIN AC000      -3.864  -2.262   0.736  0.00  0.00    -0.165 NA
ATOM     16  C17 ZIN AC000      -4.896  -2.923   0.282  0.00  0.00     0.256 A 
ATOM     17  N16 ZIN AC000      -4.523  -3.629  -0.784  0.00  0.00    -0.234 NA
ATOM     18  C15 ZIN AC000      -3.254  -3.426  -1.029  0.00  0.00     0.230 A 
ENDBRANCH  13  14
ENDBRANCH   1  13
BRANCH   1  19
ATOM     19  C19 ZIN AC000      -2.162  -0.034  -1.208  0.00  0.00     0.017 A 
ATOM     20  C25 ZIN AC000      -1.696  -0.356  -2.472  0.00  0.00     0.128 A 
ATOM     21  C24 ZIN AC000      -2.369   0.099  -3.593  0.00  0.00     0.085 A 
ATOM     22  F26 ZIN AC000      -0.592  -1.122  -2.611  0.00  0.00    -0.205 F 
ATOM     23  C22 ZIN AC000      -3.500   0.883  -3.450  0.00  0.00     0.119 A 
ATOM     24  C21 ZIN AC000      -3.961   1.208  -2.185  0.00  0.00     0.043 A 
ATOM     25  F23 ZIN AC000      -4.154   1.332  -4.543  0.00  0.00    -0.206 F 
ATOM     26  C20 ZIN AC000      -3.292   0.749  -1.066  0.00  0.00     0.016 A 
ENDBRANCH   1  19
TORSDOF 6
