REMARK  9 active torsions:
REMARK  status: ('A' for Active; 'I' for Inactive)
REMARK    1  A    between atoms: C2_2  and  C4_4 
REMARK    2  A    between atoms: C4_4  and  C5_5 
REMARK    3  A    between atoms: C5_5  and  C6_6 
REMARK    4  A    between atoms: C6_6  and  C7_7 
REMARK    5  A    between atoms: C10_10  and  N11_11 
REMARK    6  A    between atoms: N11_11  and  C12_12 
REMARK    7  A    between atoms: N11_11  and  C15_15 
REMARK    8  A    between atoms: C12_12  and  C13_13 
REMARK    9  A    between atoms: C15_15  and  C16_16 
ROOT
ATOM      1  C7  ZIN AC000      -4.946   0.693   0.029  0.00  0.00    -0.058 A 
ATOM      2  C8  ZIN AC000      -5.466   0.240  -1.169  0.00  0.00     0.009 A 
ATOM      3  C9  ZIN AC000      -6.504  -0.672  -1.173  0.00  0.00     0.030 A 
ATOM      4  C10 ZIN AC000      -7.025  -1.134   0.029  0.00  0.00     0.030 A 
ATOM      5  C18 ZIN AC000      -6.500  -0.676   1.231  0.00  0.00     0.030 A 
ATOM      6  C19 ZIN AC000      -5.459   0.231   1.228  0.00  0.00     0.009 A 
ENDROOT
BRANCH   4   7
ATOM      7  N11 ZIN AC000      -8.074  -2.056   0.029  0.00  0.00    -0.379 N 
BRANCH   7   8
ATOM      8  C12 ZIN AC000      -8.622  -2.542   1.298  0.00  0.00     0.138 C 
BRANCH   8   9
ATOM      9  C13 ZIN AC000      -9.765  -1.628   1.743  0.00  0.00     0.134 C 
ATOM     10 Cl14 ZIN AC000     -10.440  -2.226   3.304  0.00  0.00    -0.129 Cl
ENDBRANCH   8   9
ENDBRANCH   7   8
BRANCH   7  11
ATOM     11  C15 ZIN AC000      -8.626  -2.537  -1.240  0.00  0.00     0.138 C 
BRANCH  11  12
ATOM     12  C16 ZIN AC000      -7.865  -3.788  -1.685  0.00  0.00     0.134 C 
ATOM     13 Cl17 ZIN AC000      -8.545  -4.381  -3.246  0.00  0.00    -0.129 Cl
ENDBRANCH  11  12
ENDBRANCH   7  11
ENDBRANCH   4   7
BRANCH   1  14
ATOM     14  C6  ZIN AC000      -3.814   1.688   0.029  0.00  0.00     0.039 C 
BRANCH  14  15
ATOM     15  C5  ZIN AC000      -2.479   0.941   0.019  0.00  0.00     0.015 C 
BRANCH  15  16
ATOM     16  C4  ZIN AC000      -1.330   1.951   0.019  0.00  0.00     0.113 C 
BRANCH  16  17
ATOM     17  C2  ZIN AC000      -0.015   1.215   0.009  0.00  0.00     0.172 C 
ATOM     18  O1  ZIN AC000       0.002  -0.004   0.002  0.00  0.00    -0.648 OA
ATOM     19  O3  ZIN AC000       1.033   1.839   0.002  0.00  0.00    -0.648 OA
ENDBRANCH  16  17
ENDBRANCH  15  16
ENDBRANCH  14  15
ENDBRANCH   1  14
TORSDOF 9
