REMARK  10 active torsions:
REMARK  status: ('A' for Active; 'I' for Inactive)
REMARK    1  A    between atoms: C6_6  and  N7_7 
REMARK    2  A    between atoms: C13_13  and  C15_14 
REMARK    3  A    between atoms: C15_14  and  N16_15 
REMARK    4  A    between atoms: N16_15  and  C17_16 
REMARK    5  A    between atoms: C20_19  and  C21_20 
REMARK       I    between atoms: C21_20  and  N23_22 
REMARK    6  A    between atoms: N23_22  and  C24_23 
REMARK    7  A    between atoms: C24_23  and  C26_24 
REMARK    8  A    between atoms: C24_23  and  C31_29 
REMARK    9  A    between atoms: C26_24  and  C27_25 
REMARK   10  A    between atoms: C27_25  and  C28_26 
ROOT
ATOM      1  C17 RES d   1      -3.529  -0.571   2.078  0.00  0.00     0.028 A 
ATOM      2  C18 RES d   1      -3.904  -1.889   2.329  0.00  0.00     0.030 A 
ATOM      3  C19 RES d   1      -5.205  -2.184   2.664  0.00  0.00     0.019 A 
ATOM      4  C20 RES d   1      -6.152  -1.159   2.753  0.00  0.00     0.032 A 
ATOM      5  C34 RES d   1      -5.773   0.163   2.500  0.00  0.00     0.019 A 
ATOM      6  C35 RES d   1      -4.469   0.452   2.171  0.00  0.00     0.030 A 
ENDROOT
BRANCH   1   7
ATOM      7  N16 RES d   1      -2.213  -0.277   1.739  0.00  0.00    -0.388 N 
ATOM      8  H46 RES d   1      -1.951   0.641   1.568  0.00  0.00     0.159 HD
BRANCH   7   9
ATOM      9  C15 RES d   1      -1.224  -1.352   1.641  0.00  0.00     0.146 C 
BRANCH   9  10
ATOM     10  C13 RES d   1       0.135  -0.762   1.257  0.00  0.00     0.119 C 
ATOM     11  N2  RES d   1       0.002  -0.004   0.002  0.00  0.00    -0.370 N 
ATOM     12  C1  RES d   1      -0.018   1.461   0.010  0.00  0.00     0.150 C 
ATOM     13  C3  RES d   1      -0.100  -0.721  -1.210  0.00  0.00     0.148 A 
ATOM     14  C9  RES d   1      -0.549  -0.095  -2.378  0.00  0.00     0.314 A 
ATOM     15  C4  RES d   1       0.248  -2.064  -1.256  0.00  0.00     0.175 A 
ATOM     16  N8  RES d   1      -0.626  -0.824  -3.512  0.00  0.00    -0.020 NA
ATOM     17  O10 RES d   1      -0.864   1.086  -2.371  0.00  0.00    -0.263 OA
ATOM     18  C6  RES d   1      -0.271  -2.138  -3.506  0.00  0.00     0.725 A 
ATOM     19  N5  RES d   1       0.152  -2.733  -2.411  0.00  0.00    -0.043 NA
ATOM     20  N11 RES d   1       0.689  -2.702  -0.107  0.00  0.00    -0.370 N 
ATOM     21  C12 RES d   1       1.144  -1.891   1.031  0.00  0.00     0.148 C 
ATOM     22  H41 RES d   1       0.696  -3.671  -0.055  0.00  0.00     0.161 HD
BRANCH  18  23
ATOM     23  N7  RES d   1      -0.356  -2.859  -4.670  0.00  0.00    -0.231 N 
ATOM     24  H39 RES d   1      -0.106  -3.797  -4.678  0.00  0.00     0.174 HD
ATOM     25  H40 RES d   1      -0.666  -2.432  -5.483  0.00  0.00     0.174 HD
ENDBRANCH  18  23
ENDBRANCH   9  10
ENDBRANCH   7   9
ENDBRANCH   1   7
BRANCH   4  26
ATOM     26  C21 RES d   1      -7.548  -1.472   3.113  0.00  0.00     0.252 C 
ATOM     27  O22 RES d   1      -7.876  -2.622   3.333  0.00  0.00    -0.268 OA
ATOM     28  N23 RES d   1      -8.460  -0.483   3.198  0.00  0.00    -0.342 N 
ATOM     29  H49 RES d   1      -8.198   0.434   3.022  0.00  0.00     0.163 HD
BRANCH  28  30
ATOM     30  C24 RES d   1      -9.846  -0.793   3.555  0.00  0.00     0.186 C 
BRANCH  30  31
ATOM     31  C26 RES d   1     -10.500   0.440   4.180  0.00  0.00     0.046 C 
BRANCH  31  32
ATOM     32  C27 RES d   1      -9.806   0.771   5.503  0.00  0.00     0.116 C 
BRANCH  32  33
ATOM     33  C28 RES d   1     -10.450   1.986   6.119  0.00  0.00     0.172 C 
ATOM     34  O29 RES d   1     -11.379   2.537   5.552  0.00  0.00    -0.648 OA
ATOM     35  O30 RES d   1     -10.043   2.419   7.183  0.00  0.00    -0.648 OA
ENDBRANCH  32  33
ENDBRANCH  31  32
ENDBRANCH  30  31
BRANCH  30  36
ATOM     36  C31 RES d   1     -10.607  -1.192   2.317  0.00  0.00     0.196 C 
ATOM     37  O32 RES d   1     -10.043  -1.215   1.236  0.00  0.00    -0.646 OA
ATOM     38  O33 RES d   1     -11.786  -1.492   2.396  0.00  0.00    -0.646 OA
ENDBRANCH  30  36
ENDBRANCH  28  30
ENDBRANCH   4  26
TORSDOF 10
