REMARK  2 active torsions:
REMARK  status: ('A' for Active; 'I' for Inactive)
REMARK    1  A    between atoms: N1_1  and  C2_2 
REMARK    2  A    between atoms: C8_8  and  N9_9 
ROOT
ATOM      1  C2  ZIN AC000       0.002  -0.004   0.002  0.00  0.00     0.028 A 
ATOM      2  C3  ZIN AC000      -1.189  -0.693   0.004  0.00  0.00     0.061 A 
ATOM      3  C4  ZIN AC000      -1.177  -2.101  -0.004  0.00  0.00     0.070 A 
ATOM      4  N5  ZIN AC000      -2.313  -2.791  -0.003  0.00  0.00    -0.247 NA
ATOM      5  C6  ZIN AC000      -2.317  -4.122  -0.011  0.00  0.00     0.070 A 
ATOM      6  C7  ZIN AC000      -3.529  -4.839  -0.010  0.00  0.00     0.061 A 
ATOM      7  C8  ZIN AC000      -3.503  -6.214  -0.019  0.00  0.00     0.028 A 
ATOM      8  C10 ZIN AC000      -2.294  -6.923  -0.029  0.00  0.00     0.030 A 
ATOM      9  C11 ZIN AC000      -1.098  -6.284  -0.030  0.00  0.00     0.016 A 
ATOM     10  C12 ZIN AC000      -1.058  -4.874  -0.022  0.00  0.00    -0.006 A 
ATOM     11  C13 ZIN AC000       0.157  -4.186  -0.023  0.00  0.00     0.027 A 
ATOM     12  C14 ZIN AC000       0.118  -2.789  -0.015  0.00  0.00    -0.006 A 
ATOM     13  C15 ZIN AC000       1.305  -2.027  -0.016  0.00  0.00     0.016 A 
ATOM     14  C16 ZIN AC000       1.234  -0.673  -0.013  0.00  0.00     0.030 A 
ENDROOT
BRANCH   1  15
ATOM     15  N1  ZIN AC000      -0.017   1.389   0.010  0.00  0.00    -0.399 N 
ATOM     16  H17 ZIN AC000       0.817   1.885   0.004  0.00  0.00     0.156 HD
ATOM     17  H18 ZIN AC000      -0.863   1.862   0.016  0.00  0.00     0.156 HD
ENDBRANCH   1  15
BRANCH   7  18
ATOM     18  N9  ZIN AC000      -4.705  -6.918  -0.018  0.00  0.00    -0.399 N 
ATOM     19  H21 ZIN AC000      -5.548  -6.438  -0.011  0.00  0.00     0.156 HD
ATOM     20  H22 ZIN AC000      -4.699  -7.888  -0.024  0.00  0.00     0.156 HD
ENDBRANCH   7  18
TORSDOF 2
