REMARK  6 active torsions:
REMARK  status: ('A' for Active; 'I' for Inactive)
REMARK    1  A    between atoms: C6_6  and  C8_7 
REMARK    2  A    between atoms: C8_7  and  C9_8 
REMARK    3  A    between atoms: C15_14  and  C16_15 
REMARK    4  A    between atoms: C16_15  and  C17_16 
REMARK    5  A    between atoms: C17_16  and  S18_17 
REMARK    6  A    between atoms: S18_17  and  C21_20 
ROOT
ATOM      1  C9  <0> d           1.837   1.693   1.217  0.00  0.00    -0.028 A 
ATOM      2  C10 <0> d           3.176   1.685   1.139  0.00  0.00     0.096 A 
ATOM      3  N11 <0> d           3.603   2.705   0.332  0.00  0.00    -0.365 N 
ATOM      4  C12 <0> d           2.520   3.412  -0.141  0.00  0.00     0.043 A 
ATOM      5  C13 <0> d           2.388   4.515  -0.977  0.00  0.00     0.031 A 
ATOM      6  C14 <0> d           1.134   5.004  -1.272  0.00  0.00     0.009 A 
ATOM      7  C15 <0> d          -0.001   4.406  -0.744  0.00  0.00    -0.056 A 
ATOM      8  C27 <0> d           0.105   3.321   0.080  0.00  0.00     0.021 A 
ATOM      9  C28 <0> d           1.366   2.805   0.387  0.00  0.00    -0.001 A 
ATOM     10  H41 <0> d           4.530   2.900   0.124  0.00  0.00     0.165 HD
ENDROOT
BRANCH   7  11
ATOM     11  C16 <0> d          -1.363   4.958  -1.081  0.00  0.00     0.054 C 
BRANCH  11  12
ATOM     12  C17 <0> d          -1.895   4.269  -2.339  0.00  0.00     0.150 C 
BRANCH  12  13
ATOM     13  S18 <0> d          -3.534   4.933  -2.744  0.00  0.00     0.175 S 
ATOM     14  O19 <0> d          -4.487   4.541  -1.766  0.00  0.00    -0.223 OA
ATOM     15  O20 <0> d          -3.433   6.286  -3.168  0.00  0.00    -0.223 OA
BRANCH  13  16
ATOM     16  C21 <0> d          -4.015   4.058  -4.196  0.00  0.00     0.059 A 
ATOM     17  C26 <0> d          -4.715   2.871  -4.087  0.00  0.00     0.023 A 
ATOM     18  C25 <0> d          -5.096   2.187  -5.226  0.00  0.00     0.002 A 
ATOM     19  C24 <0> d          -4.771   2.685  -6.473  0.00  0.00     0.000 A 
ATOM     20  C23 <0> d          -4.067   3.870  -6.582  0.00  0.00     0.002 A 
ATOM     21  C22 <0> d          -3.689   4.557  -5.443  0.00  0.00     0.023 A 
ENDBRANCH  13  16
ENDBRANCH  12  13
ENDBRANCH  11  12
ENDBRANCH   7  11
BRANCH   1  22
ATOM     22  C8  <0> d           0.979   0.736   2.003  0.00  0.00     0.076 C 
BRANCH  22  23
ATOM     23  C6  <0> d           0.415  -0.333   1.064  0.00  0.00     0.227 C 
ATOM     24  N2  <0> d          -0.452  -1.259   1.816  0.00  0.00     0.089 N 
ATOM     25  C1  <0> d          -0.589  -0.833   3.215  0.00  0.00     0.310 C 
ATOM     26  C3  <0> d           0.125  -2.618   1.731  0.00  0.00     0.272 C 
ATOM     27  C4  <0> d           0.980  -2.604   0.440  0.00  0.00     0.032 C 
ATOM     28  C5  <0> d           1.568  -1.169   0.468  0.00  0.00     0.038 C 
ENDBRANCH  22  23
ENDBRANCH   1  22
TORSDOF 6
