REMARK  7 active torsions:
REMARK  status: ('A' for Active; 'I' for Inactive)
REMARK    1  A    between atoms: C5_5  and  C6_6 
REMARK    2  A    between atoms: C6_6  and  C7_7 
REMARK    3  A    between atoms: C7_7  and  C8_8 
REMARK    4  A    between atoms: C8_8  and  C10_9 
REMARK    5  A    between atoms: C8_8  and  S17_16 
REMARK    6  A    between atoms: C10_9  and  N11_10 
REMARK    7  A    between atoms: S17_16  and  C18_17 
ROOT
ATOM      1  C8  ZIN AC000       0.062   8.114   1.178  0.00  0.00     0.071 C 
ENDROOT
BRANCH   1   2
ATOM      2  C7  ZIN AC000      -0.054   6.606   0.946  0.00  0.00     0.022 C 
BRANCH   2   3
ATOM      3  C6  ZIN AC000      -0.111   6.325  -0.556  0.00  0.00     0.040 C 
BRANCH   3   4
ATOM      4  C5  ZIN AC000      -0.226   4.839  -0.785  0.00  0.00    -0.058 A 
ATOM      5  C4  ZIN AC000      -1.472   4.246  -0.861  0.00  0.00     0.009 A 
ATOM      6  C3  ZIN AC000      -1.577   2.884  -1.071  0.00  0.00     0.024 A 
ATOM      7  C2  ZIN AC000      -0.435   2.114  -1.205  0.00  0.00     0.034 A 
ATOM      8 Cl1  ZIN AC000      -0.567   0.404  -1.469  0.00  0.00    -0.084 Cl
ATOM      9  C27 ZIN AC000       0.812   2.708  -1.123  0.00  0.00     0.024 A 
ATOM     10  C26 ZIN AC000       0.916   4.071  -0.918  0.00  0.00     0.009 A 
ENDBRANCH   3   4
ENDBRANCH   2   3
ENDBRANCH   1   2
BRANCH   1  11
ATOM     11  C10 ZIN AC000       0.244   8.387   2.673  0.00  0.00     0.144 C 
BRANCH  11  12
ATOM     12  N11 ZIN AC000       1.511   7.808   3.124  0.00  0.00    -0.351 N 
ATOM     13  C16 ZIN AC000       2.731   8.382   3.038  0.00  0.00     0.182 A 
ATOM     14  N14 ZIN AC000       3.614   7.566   3.545  0.00  0.00    -0.361 N 
ATOM     15  C13 ZIN AC000       2.998   6.450   3.961  0.00  0.00     0.106 A 
ATOM     16  H15 ZIN AC000       4.567   7.739   3.608  0.00  0.00     0.166 HD
ATOM     17  C12 ZIN AC000       1.682   6.581   3.707  0.00  0.00     0.108 A 
ENDBRANCH  11  12
ENDBRANCH   1  11
BRANCH   1  18
ATOM     18  S17 ZIN AC000      -1.447   8.934   0.593  0.00  0.00    -0.120 SA
BRANCH  18  19
ATOM     19  C18 ZIN AC000      -1.075  10.644   0.802  0.00  0.00     0.044 A 
ATOM     20  C24 ZIN AC000      -0.350  11.323  -0.170  0.00  0.00     0.052 A 
ATOM     21  C23 ZIN AC000      -0.066  12.666  -0.005  0.00  0.00     0.025 A 
ATOM     22 Cl25 ZIN AC000       0.184  10.490  -1.596  0.00  0.00    -0.083 Cl
ATOM     23  C22 ZIN AC000      -0.492  13.330   1.131  0.00  0.00     0.003 A 
ATOM     24  C21 ZIN AC000      -1.209  12.656   2.103  0.00  0.00     0.025 A 
ATOM     25  C19 ZIN AC000      -1.502  11.315   1.942  0.00  0.00     0.052 A 
ATOM     26 Cl20 ZIN AC000      -2.401  10.470   3.163  0.00  0.00    -0.083 Cl
ENDBRANCH  18  19
ENDBRANCH   1  18
TORSDOF 7
