REMARK  4 active torsions:
REMARK  status: ('A' for Active; 'I' for Inactive)
REMARK    1  A    between atoms: C3_3  and  N4_4 
REMARK    2  A    between atoms: N4_4  and  C6_6 
REMARK    3  A    between atoms: C6_6  and  C9_8 
REMARK    4  A    between atoms: C9_8  and  C10_9 
ROOT
ATOM      1  C1  <0> d           0.018  -1.178  -0.004  0.00  0.00     0.013 C 
ATOM      2  C2  <0> d           0.002  -0.004   0.002  0.00  0.00    -0.087 C 
ATOM      3  C3  <0> d          -0.018   1.468   0.010  0.00  0.00     0.364 C 
ENDROOT
BRANCH   3   4
ATOM      4  N4  <0> d           1.360   1.976  -0.000  0.00  0.00     0.099 N 
ATOM      5  C5  <0> d           2.035   1.643  -1.262  0.00  0.00     0.311 C 
BRANCH   4   6
ATOM      6  C6  <0> d           1.389   3.424   0.245  0.00  0.00     0.223 C 
ATOM      7  C8  <0> d           0.700   4.152  -0.911  0.00  0.00     0.043 C 
BRANCH   6   8
ATOM      8  C9  <0> d           2.841   3.895   0.351  0.00  0.00     0.074 C 
BRANCH   8   9
ATOM      9  C10 <0> d           3.484   3.272   1.563  0.00  0.00    -0.056 A 
ATOM     10  C15 <0> d           4.129   2.054   1.455  0.00  0.00     0.007 A 
ATOM     11  C14 <0> d           4.723   1.485   2.566  0.00  0.00     0.001 A 
ATOM     12  C13 <0> d           4.663   2.129   3.788  0.00  0.00     0.000 A 
ATOM     13  C12 <0> d           4.013   3.344   3.897  0.00  0.00     0.001 A 
ATOM     14  C11 <0> d           3.424   3.916   2.785  0.00  0.00     0.007 A 
ENDBRANCH   8   9
ENDBRANCH   6   8
ENDBRANCH   4   6
ENDBRANCH   3   4
TORSDOF 4
