REMARK  4 active torsions:
REMARK  status: ('A' for Active; 'I' for Inactive)
REMARK    1  A    between atoms: C4_4  and  C5_5 
REMARK       I    between atoms: C5_5  and  N7_7 
REMARK    2  A    between atoms: N7_7  and  N8_8 
REMARK    3  A    between atoms: N8_8  and  C9_9 
REMARK    4  A    between atoms: C9_9  and  C10_10 
ROOT
ATOM      1  C5  ZIN AC000      -0.014   1.211   0.009  0.00  0.00     0.286 C 
ATOM      2  O6  ZIN AC000       0.002  -0.004   0.002  0.00  0.00    -0.265 OA
ATOM      3  N7  ZIN AC000      -1.191   1.869   0.018  0.00  0.00    -0.286 N 
ATOM      4  H22 ZIN AC000      -1.204   2.839   0.023  0.00  0.00     0.184 HD
ENDROOT
BRANCH   3   5
ATOM      5  N8  ZIN AC000      -2.364   1.170   0.020  0.00  0.00    -0.233 NA
ATOM      6  H23 ZIN AC000      -2.402   0.528   0.798  0.00  0.00     0.146 HD
BRANCH   5   7
ATOM      7  C9  ZIN AC000      -3.518   2.079   0.030  0.00  0.00     0.149 C 
BRANCH   7   8
ATOM      8  C10 ZIN AC000      -4.792   1.273   0.032  0.00  0.00    -0.044 A 
ATOM      9  C15 ZIN AC000      -5.370   0.897   1.230  0.00  0.00     0.008 A 
ATOM     10  C14 ZIN AC000      -6.539   0.159   1.231  0.00  0.00     0.001 A 
ATOM     11  C13 ZIN AC000      -7.129  -0.204   0.035  0.00  0.00     0.000 A 
ATOM     12  C12 ZIN AC000      -6.551   0.172  -1.163  0.00  0.00     0.001 A 
ATOM     13  C11 ZIN AC000      -5.385   0.915  -1.165  0.00  0.00     0.008 A 
ENDBRANCH   7   8
ENDBRANCH   5   7
ENDBRANCH   3   5
BRANCH   1  14
ATOM     14  C4  ZIN AC000       1.260   1.970   0.001  0.00  0.00     0.155 A 
ATOM     15  C3  ZIN AC000       2.576   1.430  -0.015  0.00  0.00     0.074 A 
ATOM     16  C2  ZIN AC000       3.376   2.522  -0.017  0.00  0.00     0.077 A 
ATOM     17  C1  ZIN AC000       4.883   2.534  -0.030  0.00  0.00     0.079 C 
ATOM     18  O17 ZIN AC000       2.567   3.591  -0.003  0.00  0.00    -0.218 OA
ATOM     19  N16 ZIN AC000       1.401   3.272   0.001  0.00  0.00    -0.123 NA
ENDBRANCH   1  14
TORSDOF 4
