REMARK  20 active torsions:
REMARK  status: ('A' for Active; 'I' for Inactive)
REMARK    1  A    between atoms: C2_2  and  C4_4 
REMARK    2  A    between atoms: C6_6  and  C7_7 
REMARK    3  A    between atoms: C7_7  and  N8_8 
REMARK       I    between atoms: N8_8  and  C10_10 
REMARK       I    between atoms: C10_10  and  N12_12 
REMARK    4  A    between atoms: N12_12  and  C13_13 
REMARK    5  A    between atoms: C13_13  and  C15_14 
REMARK    6  A    between atoms: C13_13  and  C24_23 
REMARK    7  A    between atoms: C15_14  and  C16_15 
REMARK    8  A    between atoms: C16_15  and  N17_16 
REMARK       I    between atoms: C24_23  and  N26_25 
REMARK    9  A    between atoms: N26_25  and  C27_26 
REMARK   10  A    between atoms: C27_26  and  C29_27 
REMARK   11  A    between atoms: C27_26  and  C50_47 
REMARK   12  A    between atoms: C29_27  and  C30_28 
REMARK   13  A    between atoms: C30_28  and  C31_29 
REMARK   14  A    between atoms: C31_29  and  C33_30 
REMARK   15  A    between atoms: C31_29  and  N40_37 
REMARK   16  A    between atoms: C33_30  and  C34_31 
REMARK       I    between atoms: N40_37  and  C41_38 
REMARK   17  A    between atoms: C41_38  and  O43_40 
REMARK   18  A    between atoms: O43_40  and  C44_41 
REMARK   19  A    between atoms: C44_41  and  C45_42 
REMARK   20  A    between atoms: C50_47  and  C51_48 
ROOT
ATOM      1  C24 ZIN AC000      -8.138   0.399  -4.904  0.00  0.00     0.240 C 
ATOM      2  O25 ZIN AC000      -7.482   0.145  -5.891  0.00  0.00    -0.271 OA
ATOM      3  N26 ZIN AC000      -9.377   0.914  -5.032  0.00  0.00    -0.354 N 
ATOM      4  H84 ZIN AC000      -9.902   1.118  -4.242  0.00  0.00     0.162 HD
ENDROOT
BRANCH   3   5
ATOM      5  C27 ZIN AC000      -9.930   1.167  -6.365  0.00  0.00     0.088 C 
BRANCH   5   6
ATOM      6  C29 ZIN AC000     -10.992   2.265  -6.276  0.00  0.00     0.027 C 
BRANCH   6   7
ATOM      7  C30 ZIN AC000     -10.332   3.580  -5.856  0.00  0.00     0.027 C 
BRANCH   7   8
ATOM      8  C31 ZIN AC000     -11.394   4.678  -5.768  0.00  0.00     0.091 C 
BRANCH   8   9
ATOM      9  C33 ZIN AC000     -10.718   6.018  -5.470  0.00  0.00     0.063 C 
BRANCH   9  10
ATOM     10  C34 ZIN AC000     -11.747   7.118  -5.504  0.00  0.00    -0.056 A 
ATOM     11  C39 ZIN AC000     -12.425   7.467  -4.351  0.00  0.00     0.007 A 
ATOM     12  C38 ZIN AC000     -13.366   8.479  -4.382  0.00  0.00     0.001 A 
ATOM     13  C37 ZIN AC000     -13.636   9.137  -5.567  0.00  0.00     0.000 A 
ATOM     14  C36 ZIN AC000     -12.962   8.784  -6.722  0.00  0.00     0.001 A 
ATOM     15  C35 ZIN AC000     -12.018   7.775  -6.690  0.00  0.00     0.007 A 
ENDBRANCH   9  10
ENDBRANCH   8   9
BRANCH   8  16
ATOM     16  N40 ZIN AC000     -12.338   4.359  -4.695  0.00  0.00    -0.332 N 
ATOM     17  C41 ZIN AC000     -13.592   4.852  -4.732  0.00  0.00     0.361 C 
ATOM     18  O42 ZIN AC000     -13.939   5.562  -5.655  0.00  0.00    -0.238 OA
ATOM     19  H96 ZIN AC000     -12.062   3.792  -3.958  0.00  0.00     0.165 HD
BRANCH  17  20
ATOM     20  O43 ZIN AC000     -14.460   4.558  -3.745  0.00  0.00    -0.299 OA
BRANCH  20  21
ATOM     21  C44 ZIN AC000     -15.793   5.125  -3.851  0.00  0.00     0.228 C 
BRANCH  21  22
ATOM     22  C45 ZIN AC000     -16.618   4.690  -2.667  0.00  0.00     0.025 A 
ATOM     23  S49 ZIN AC000     -17.618   3.242  -2.575  0.00  0.00    -0.084 SA
ATOM     24  C48 ZIN AC000     -18.073   3.647  -0.977  0.00  0.00     0.166 A 
ATOM     25  N47 ZIN AC000     -17.511   4.753  -0.622  0.00  0.00    -0.265 NA
ATOM     26  C46 ZIN AC000     -16.726   5.339  -1.503  0.00  0.00     0.133 A 
ENDBRANCH  21  22
ENDBRANCH  20  21
ENDBRANCH  17  20
ENDBRANCH   8  16
ENDBRANCH   7   8
ENDBRANCH   6   7
ENDBRANCH   5   6
BRANCH   5  27
ATOM     27  C50 ZIN AC000     -10.567  -0.116  -6.904  0.00  0.00     0.063 C 
BRANCH  27  28
ATOM     28  C51 ZIN AC000      -9.499  -1.159  -7.107  0.00  0.00    -0.056 A 
ATOM     29  C56 ZIN AC000      -9.176  -2.026  -6.080  0.00  0.00     0.007 A 
ATOM     30  C55 ZIN AC000      -8.199  -2.987  -6.268  0.00  0.00     0.001 A 
ATOM     31  C54 ZIN AC000      -7.540  -3.074  -7.480  0.00  0.00     0.000 A 
ATOM     32  C53 ZIN AC000      -7.859  -2.203  -8.505  0.00  0.00     0.001 A 
ATOM     33  C52 ZIN AC000      -8.839  -1.246  -8.319  0.00  0.00     0.007 A 
ENDBRANCH  27  28
ENDBRANCH   5  27
ENDBRANCH   3   5
BRANCH   1  34
ATOM     34  C13 ZIN AC000      -7.569   0.139  -3.533  0.00  0.00     0.180 C 
BRANCH  34  35
ATOM     35  N12 ZIN AC000      -6.220  -0.417  -3.662  0.00  0.00    -0.330 N 
ATOM     36  C10 ZIN AC000      -5.708  -1.180  -2.675  0.00  0.00     0.319 C 
ATOM     37  N8  ZIN AC000      -4.467  -1.692  -2.794  0.00  0.00    -0.333 N 
ATOM     38  O11 ZIN AC000      -6.367  -1.407  -1.679  0.00  0.00    -0.247 OA
ATOM     39  C9  ZIN AC000      -3.674  -1.419  -3.995  0.00  0.00     0.154 C 
ATOM     40  H71 ZIN AC000      -5.694  -0.236  -4.457  0.00  0.00     0.165 HD
BRANCH  37  41
ATOM     41  C7  ZIN AC000      -3.912  -2.522  -1.722  0.00  0.00     0.186 C 
BRANCH  41  42
ATOM     42  C6  ZIN AC000      -3.183  -1.646  -0.735  0.00  0.00     0.060 A 
ATOM     43  N5  ZIN AC000      -1.929  -1.277  -0.900  0.00  0.00    -0.248 NA
ATOM     44  C4  ZIN AC000      -1.412  -0.526   0.013  0.00  0.00     0.078 A 
ATOM     45  S58 ZIN AC000      -2.561  -0.214   1.240  0.00  0.00    -0.084 SA
ATOM     46  C57 ZIN AC000      -3.756  -1.180   0.378  0.00  0.00     0.080 A 
BRANCH  44  47
ATOM     47  C2  ZIN AC000       0.002  -0.004   0.002  0.00  0.00     0.037 C 
ATOM     48  C1  ZIN AC000      -0.019   1.526   0.010  0.00  0.00     0.016 C 
ATOM     49  C3  ZIN AC000       0.742  -0.511   1.242  0.00  0.00     0.016 C 
ENDBRANCH  44  47
ENDBRANCH  41  42
ENDBRANCH  37  41
ENDBRANCH  34  35
BRANCH  34  50
ATOM     50  C15 ZIN AC000      -7.506   1.452  -2.749  0.00  0.00     0.062 C 
BRANCH  50  51
ATOM     51  C16 ZIN AC000      -7.046   1.170  -1.317  0.00  0.00     0.237 C 
BRANCH  51  52
ATOM     52  N17 ZIN AC000      -6.986   2.430  -0.565  0.00  0.00    -0.067 N 
ATOM     53  H18 ZIN AC000      -6.397   3.087  -1.055  0.00  0.00     0.280 HD
ATOM     54  C23 ZIN AC000      -8.339   2.988  -0.435  0.00  0.00     0.261 C 
ATOM     55  C22 ZIN AC000      -8.274   4.301   0.349  0.00  0.00     0.195 C 
ATOM     56  O21 ZIN AC000      -7.681   4.058   1.627  0.00  0.00    -0.388 OA
ATOM     57  C20 ZIN AC000      -6.370   3.492   1.553  0.00  0.00     0.195 C 
ATOM     58  C19 ZIN AC000      -6.431   2.177   0.772  0.00  0.00     0.261 C 
ENDBRANCH  51  52
ENDBRANCH  50  51
ENDBRANCH  34  50
ENDBRANCH   1  34
TORSDOF 20
