REMARK  6 active torsions:
REMARK  status: ('A' for Active; 'I' for Inactive)
REMARK    1  A    between atoms: C2_2  and  C4_4 
REMARK    2  A    between atoms: C4_4  and  C5_5 
REMARK    3  A    between atoms: C5_5  and  O6_6 
REMARK    4  A    between atoms: C5_5  and  C7_7 
REMARK    5  A    between atoms: C5_5  and  C11_11 
REMARK    6  A    between atoms: C7_7  and  C8_8 
ROOT
ATOM      1  C5  ZIN AC000      -2.479   0.941   0.019  0.00  0.00     0.164 C 
ENDROOT
BRANCH   1   2
ATOM      2  C4  ZIN AC000      -1.330   1.951   0.019  0.00  0.00     0.163 C 
BRANCH   2   3
ATOM      3  C2  ZIN AC000      -0.015   1.215   0.009  0.00  0.00     0.176 C 
ATOM      4  O1  ZIN AC000       0.002  -0.004   0.002  0.00  0.00    -0.648 OA
ATOM      5  O3  ZIN AC000       1.033   1.839   0.002  0.00  0.00    -0.648 OA
ENDBRANCH   2   3
ENDBRANCH   1   2
BRANCH   1   6
ATOM      6  O6  ZIN AC000      -2.455   0.192   1.236  0.00  0.00    -0.378 OA
ATOM      7  H16 ZIN AC000      -2.550   0.732   2.032  0.00  0.00     0.211 HD
ENDBRANCH   1   6
BRANCH   1   8
ATOM      8  C7  ZIN AC000      -3.811   1.684  -0.096  0.00  0.00     0.163 C 
BRANCH   8   9
ATOM      9  C8  ZIN AC000      -4.943   0.690  -0.097  0.00  0.00     0.176 C 
ATOM     10  O9  ZIN AC000      -4.706  -0.503  -0.012  0.00  0.00    -0.648 OA
ATOM     11  O10 ZIN AC000      -6.096   1.078  -0.181  0.00  0.00    -0.648 OA
ENDBRANCH   8   9
ENDBRANCH   1   8
BRANCH   1  12
ATOM     12  C11 ZIN AC000      -2.324   0.003  -1.151  0.00  0.00     0.210 C 
ATOM     13  O12 ZIN AC000      -2.204  -1.195  -0.960  0.00  0.00    -0.646 OA
ATOM     14  O13 ZIN AC000      -2.318   0.443  -2.288  0.00  0.00    -0.646 OA
ENDBRANCH   1  12
TORSDOF 6
