REMARK  4 active torsions:
REMARK  status: ('A' for Active; 'I' for Inactive)
REMARK    1  A    between atoms: N5_5  and  C6_6 
REMARK    2  A    between atoms: C6_6  and  C7_7 
REMARK    3  A    between atoms: C7_7  and  C8_8 
REMARK    4  A    between atoms: C8_8  and  N9_9 
ROOT
ATOM      1  N9  ZIN AC000       0.457  -6.597   3.636  0.00  0.00    -0.345 N 
ATOM      2  C10 ZIN AC000      -0.465  -6.735   4.671  0.00  0.00     0.052 A 
ATOM      3  C11 ZIN AC000      -1.625  -5.969   4.640  0.00  0.00     0.031 A 
ATOM      4  C12 ZIN AC000      -2.564  -6.083   5.648  0.00  0.00     0.002 A 
ATOM      5  C13 ZIN AC000      -2.356  -6.961   6.694  0.00  0.00     0.002 A 
ATOM      6  C14 ZIN AC000      -1.206  -7.727   6.735  0.00  0.00     0.021 A 
ATOM      7  C15 ZIN AC000      -0.257  -7.617   5.727  0.00  0.00     0.032 A 
ATOM      8  S16 ZIN AC000       1.202  -8.598   5.806  0.00  0.00    -0.086 SA
ATOM      9  C17 ZIN AC000       2.298  -7.793   4.687  0.00  0.00     0.032 A 
ATOM     10  C18 ZIN AC000       3.657  -8.066   4.753  0.00  0.00     0.023 A 
ATOM     11  C19 ZIN AC000       4.535  -7.443   3.884  0.00  0.00     0.025 A 
ATOM     12  C20 ZIN AC000       4.058  -6.545   2.947  0.00  0.00     0.036 A 
ATOM     13 Cl21 ZIN AC000       5.161  -5.763   1.858  0.00  0.00    -0.084 Cl
ATOM     14  C22 ZIN AC000       2.705  -6.269   2.876  0.00  0.00     0.054 A 
ATOM     15  C23 ZIN AC000       1.813  -6.897   3.742  0.00  0.00     0.053 A 
ENDROOT
BRANCH   1  16
ATOM     16  C8  ZIN AC000      -0.034  -6.108   2.345  0.00  0.00     0.131 C 
BRANCH  16  17
ATOM     17  C7  ZIN AC000       0.057  -4.581   2.310  0.00  0.00     0.050 C 
BRANCH  17  18
ATOM     18  C6  ZIN AC000      -0.456  -4.071   0.962  0.00  0.00     0.274 C 
BRANCH  18  19
ATOM     19  N5  ZIN AC000      -0.369  -2.605   0.928  0.00  0.00     0.091 N 
ATOM     20  C4  ZIN AC000      -1.067  -2.063  -0.246  0.00  0.00     0.302 C 
ATOM     21  C3  ZIN AC000      -1.021  -0.533  -0.202  0.00  0.00     0.302 C 
ATOM     22  N2  ZIN AC000       0.379  -0.088  -0.173  0.00  0.00     0.087 N 
ATOM     23  C1  ZIN AC000       0.466   1.378  -0.207  0.00  0.00     0.310 C 
ATOM     24  C25 ZIN AC000       1.077  -0.631   1.001  0.00  0.00     0.302 C 
ATOM     25  C24 ZIN AC000       1.031  -2.160   0.957  0.00  0.00     0.302 C 
ENDBRANCH  18  19
ENDBRANCH  17  18
ENDBRANCH  16  17
ENDBRANCH   1  16
TORSDOF 4
