REMARK  7 active torsions:
REMARK  status: ('A' for Active; 'I' for Inactive)
REMARK    1  A    between atoms: C6_6  and  N7_7 
REMARK       I    between atoms: N7_7  and  C8_8 
REMARK    2  A    between atoms: C8_8  and  C10_10 
REMARK    3  A    between atoms: C10_10  and  N11_11 
REMARK    4  A    between atoms: N11_11  and  C12_12 
REMARK    5  A    between atoms: N11_11  and  C16_16 
REMARK    6  A    between atoms: C12_12  and  C13_13 
REMARK    7  A    between atoms: C16_16  and  C17_17 
ROOT
ATOM      1  N7  <0> d           0.783  -4.577  -0.457  0.00  0.00    -0.325 N 
ATOM      2  C8  <0> d           0.819  -5.253   0.708  0.00  0.00     0.250 C 
ATOM      3  O9  <0> d           0.911  -4.651   1.757  0.00  0.00    -0.271 OA
ATOM      4  H31 <0> d           0.630  -5.052  -1.289  0.00  0.00     0.169 HD
ENDROOT
BRANCH   1   5
ATOM      5  C6  <0> d           0.965  -3.190  -0.467  0.00  0.00     0.048 A 
ATOM      6  C4  <0> d           1.975  -2.626  -1.234  0.00  0.00    -0.034 A 
ATOM      7  C3  <0> d           2.153  -1.256  -1.242  0.00  0.00     0.017 A 
ATOM      8  C5  <0> d           2.877  -3.508  -2.058  0.00  0.00     0.050 C 
ATOM      9  C2  <0> d           1.327  -0.446  -0.486  0.00  0.00    -0.043 A 
ATOM     10  C1  <0> d           1.524   1.048  -0.496  0.00  0.00     0.049 C 
ATOM     11  C22 <0> d           0.322  -1.005   0.285  0.00  0.00     0.025 A 
ATOM     12  C20 <0> d           0.136  -2.374   0.292  0.00  0.00    -0.017 A 
ATOM     13 Br23 <0> d          -0.806   0.108   1.317  0.00  0.00    -0.050 Br
ATOM     14  C21 <0> d          -0.962  -2.982   1.127  0.00  0.00     0.052 C 
ENDBRANCH   1   5
BRANCH   2  15
ATOM     15  C10 <0> d           0.744  -6.759   0.709  0.00  0.00     0.376 C 
BRANCH  15  16
ATOM     16  N11 <0> d           0.802  -7.252   2.091  0.00  0.00     0.117 N 
BRANCH  16  17
ATOM     17  C12 <0> d           0.495  -8.687   2.152  0.00  0.00     0.386 C 
BRANCH  17  18
ATOM     18  C13 <0> d          -0.990  -8.890   1.999  0.00  0.00     0.202 C 
ATOM     19  O14 <0> d          -1.722  -7.931   1.830  0.00  0.00    -0.647 OA
ATOM     20  O15 <0> d          -1.459 -10.015   2.045  0.00  0.00    -0.647 OA
ENDBRANCH  17  18
ENDBRANCH  16  17
BRANCH  16  21
ATOM     21  C16 <0> d           2.109  -6.966   2.697  0.00  0.00     0.386 C 
BRANCH  21  22
ATOM     22  C17 <0> d           2.013  -7.116   4.194  0.00  0.00     0.202 C 
ATOM     23  O18 <0> d           0.967  -7.481   4.704  0.00  0.00    -0.647 OA
ATOM     24  O19 <0> d           2.980  -6.872   4.895  0.00  0.00    -0.647 OA
ENDBRANCH  21  22
ENDBRANCH  16  21
ENDBRANCH  15  16
ENDBRANCH   2  15
TORSDOF 7
