REMARK  6 active torsions:
REMARK  status: ('A' for Active; 'I' for Inactive)
REMARK    1  A    between atoms: N1_1  and  C5_5 
REMARK    2  A    between atoms: C5_5  and  C7_6 
REMARK    3  A    between atoms: C5_5  and  C16_15 
REMARK    4  A    between atoms: C7_6  and  C8_7 
REMARK    5  A    between atoms: C11_10  and  O12_11 
REMARK    6  A    between atoms: C13_12  and  O14_13 
ROOT
ATOM      1  C8  <0> d           0.690   3.529   1.338  0.00  0.00    -0.053 A 
ATOM      2  C9  <0> d           1.244   3.754   2.584  0.00  0.00     0.010 A 
ATOM      3  C10 <0> d           2.536   4.233   2.693  0.00  0.00     0.040 A 
ATOM      4  C11 <0> d           3.280   4.487   1.552  0.00  0.00     0.098 A 
ATOM      5  C13 <0> d           2.722   4.260   0.297  0.00  0.00     0.099 A 
ATOM      6  C15 <0> d           1.428   3.776   0.195  0.00  0.00     0.046 A 
ENDROOT
BRANCH   1   7
ATOM      7  C7  <0> d          -0.720   3.008   1.225  0.00  0.00     0.082 C 
BRANCH   7   8
ATOM      8  C5  <0> d          -0.699   1.479   1.216  0.00  0.00     0.287 C 
BRANCH   8   9
ATOM      9  N1  <0> d          -0.012   1.005   0.008  0.00  0.00    -0.065 N 
ATOM     10  H2  <0> d           0.002  -0.004   0.002  0.00  0.00     0.275 HD
ATOM     11  H3  <0> d           0.935   1.354   0.000  0.00  0.00     0.275 HD
ATOM     12  H4  <0> d          -0.500   1.339  -0.810  0.00  0.00     0.275 HD
ENDBRANCH   8   9
BRANCH   8  13
ATOM     13  C16 <0> d          -2.113   0.957   1.227  0.00  0.00     0.204 C 
ATOM     14  O17 <0> d          -2.511   0.256   0.312  0.00  0.00    -0.646 OA
ATOM     15  O18 <0> d          -2.859   1.236   2.150  0.00  0.00    -0.646 OA
ENDBRANCH   8  13
ENDBRANCH   7   8
ENDBRANCH   1   7
BRANCH   5  16
ATOM     16  O14 <0> d           3.447   4.507  -0.826  0.00  0.00    -0.358 OA
ATOM     17  H24 <0> d           3.962   3.750  -1.137  0.00  0.00     0.217 HD
ENDBRANCH   5  16
BRANCH   4  18
ATOM     18  O12 <0> d           4.551   4.957   1.657  0.00  0.00    -0.358 OA
ATOM     19  H23 <0> d           5.224   4.264   1.702  0.00  0.00     0.217 HD
ENDBRANCH   4  18
TORSDOF 6
