REMARK  7 active torsions:
REMARK  status: ('A' for Active; 'I' for Inactive)
REMARK    1  A    between atoms: C2_2  and  C3_3 
REMARK    2  A    between atoms: C3_3  and  C4_4 
REMARK    3  A    between atoms: C4_4  and  C5_5 
REMARK    4  A    between atoms: C5_5  and  C6_6 
REMARK    5  A    between atoms: C6_6  and  C7_7 
REMARK    6  A    between atoms: C7_7  and  C10_10 
REMARK    7  A    between atoms: C12_12  and  O13_13 
ROOT
ATOM      1  C10 ZIN AC000       2.284  -6.091   3.696  0.00  0.00    -0.045 A 
ATOM      2  C11 ZIN AC000       1.690  -6.784   2.658  0.00  0.00     0.045 A 
ATOM      3  C12 ZIN AC000       1.713  -8.170   2.651  0.00  0.00     0.075 A 
ATOM      4  C14 ZIN AC000       2.329  -8.864   3.683  0.00  0.00     0.013 A 
ATOM      5  C15 ZIN AC000       2.919  -8.169   4.726  0.00  0.00     0.079 A 
ATOM      6  C16 ZIN AC000       2.901  -6.778   4.721  0.00  0.00     0.045 A 
ATOM      7  O17 ZIN AC000       3.517  -8.804   5.768  0.00  0.00    -0.340 OA
ATOM      8  C18 ZIN AC000       3.826 -10.193   5.636  0.00  0.00     0.065 C 
ATOM      9  C19 ZIN AC000       5.015 -10.369   4.689  0.00  0.00     0.046 C 
ATOM     10  C20 ZIN AC000       4.168 -10.779   7.008  0.00  0.00     0.046 C 
ATOM     11  C21 ZIN AC000       2.600 -10.904   5.062  0.00  0.00     0.029 C 
ATOM     12  C23 ZIN AC000       2.822 -12.413   4.993  0.00  0.00     0.015 C 
ATOM     13  C24 ZIN AC000       1.529 -13.081   4.506  0.00  0.00     0.079 C 
ATOM     14  C25 ZIN AC000       1.098 -12.435   3.209  0.00  0.00     0.127 C 
ATOM     15  O26 ZIN AC000       0.820 -13.112   2.248  0.00  0.00    -0.298 OA
ATOM     16  C27 ZIN AC000       1.021 -10.924   3.137  0.00  0.00     0.088 C 
ATOM     17  C28 ZIN AC000       2.351 -10.367   3.650  0.00  0.00     0.038 C 
ENDROOT
BRANCH   1  18
ATOM     18  C7  ZIN AC000       2.264  -4.584   3.704  0.00  0.00    -0.020 C 
ATOM     19  C8  ZIN AC000       3.699  -4.055   3.693  0.00  0.00     0.020 C 
ATOM     20  C9  ZIN AC000       1.547  -4.091   4.963  0.00  0.00     0.020 C 
BRANCH  18  21
ATOM     21  C6  ZIN AC000       1.524  -4.077   2.464  0.00  0.00     0.013 C 
BRANCH  21  22
ATOM     22  C5  ZIN AC000       1.503  -2.548   2.473  0.00  0.00     0.001 C 
BRANCH  22  23
ATOM     23  C4  ZIN AC000       0.763  -2.041   1.233  0.00  0.00     0.000 C 
BRANCH  23  24
ATOM     24  C3  ZIN AC000       0.742  -0.511   1.242  0.00  0.00    -0.000 C 
BRANCH  24  25
ATOM     25  C2  ZIN AC000       0.002  -0.004   0.002  0.00  0.00    -0.005 C 
ATOM     26  C1  ZIN AC000      -0.019   1.526   0.010  0.00  0.00     0.005 C 
ENDBRANCH  24  25
ENDBRANCH  23  24
ENDBRANCH  22  23
ENDBRANCH  21  22
ENDBRANCH  18  21
ENDBRANCH   1  18
BRANCH   3  27
ATOM     27  O13 ZIN AC000       1.131  -8.852   1.629  0.00  0.00    -0.360 OA
ATOM     28  H50 ZIN AC000       1.726  -9.034   0.888  0.00  0.00     0.217 HD
ENDBRANCH   3  27
TORSDOF 7
