REMARK  4 active torsions:
REMARK  status: ('A' for Active; 'I' for Inactive)
REMARK    1  A    between atoms: C2_2  and  O4_3 
REMARK    2  A    between atoms: C2_2  and  C5_4 
REMARK    3  A    between atoms: C5_4  and  N7_5 
REMARK    4  A    between atoms: C5_4  and  C11_9 
ROOT
ATOM      1  C5  <0> d          -1.433  -0.534   0.013  0.00  0.00     0.311 C 
ENDROOT
BRANCH   1   2
ATOM      2  C2  <0> d           0.002  -0.004   0.002  0.00  0.00     0.155 C 
ATOM      3  C1  <0> d          -0.019   1.526   0.010  0.00  0.00     0.042 C 
BRANCH   2   4
ATOM      4  O4  <0> d           0.693  -0.477   1.160  0.00  0.00    -0.393 OA
ATOM      5  H17 <0> d           1.611  -0.180   1.219  0.00  0.00     0.210 HD
ENDBRANCH   2   4
ENDBRANCH   1   2
BRANCH   1   6
ATOM      6  N7  <0> d          -2.157   0.036   1.157  0.00  0.00    -0.063 N 
ATOM      7  H8  <0> d          -2.170   1.042   1.080  0.00  0.00     0.275 HD
ATOM      8  H9  <0> d          -3.103  -0.313   1.165  0.00  0.00     0.275 HD
ATOM      9  H10 <0> d          -1.694  -0.229   2.014  0.00  0.00     0.275 HD
ENDBRANCH   1   6
BRANCH   1  10
ATOM     10  C11 <0> d          -1.414  -2.036   0.129  0.00  0.00     0.207 C 
ATOM     11  O12 <0> d          -1.427  -2.563   1.228  0.00  0.00    -0.646 OA
ATOM     12  O13 <0> d          -1.384  -2.724  -0.877  0.00  0.00    -0.646 OA
ENDBRANCH   1  10
TORSDOF 4
