REMARK  6 active torsions:
REMARK  status: ('A' for Active; 'I' for Inactive)
REMARK    1  A    between atoms: C2_2  and  N3_3 
REMARK    2  A    between atoms: C5_5  and  C7_6 
REMARK    3  A    between atoms: C7_6  and  C8_7 
REMARK    4  A    between atoms: C8_7  and  N9_8 
REMARK    5  A    between atoms: C16_15  and  C17_16 
REMARK    6  A    between atoms: C16_15  and  C23_22 
ROOT
ATOM      1  N3  <0> d           1.049  -1.005   0.908  0.00  0.00    -0.351 N 
ATOM      2  C4  <0> d           2.464  -1.023   1.296  0.00  0.00     0.132 C 
ATOM      3  C5  <0> d           2.483  -0.681   2.803  0.00  0.00     0.032 C 
ATOM      4  C16 <0> d           1.076  -1.143   3.248  0.00  0.00     0.100 C 
ATOM      5  C29 <0> d           0.247  -1.071   1.985  0.00  0.00     0.238 C 
ATOM      6  O30 <0> d          -0.966  -1.079   1.948  0.00  0.00    -0.272 OA
ENDROOT
BRANCH   4   7
ATOM      7  C17 <0> d           1.125  -2.554   3.773  0.00  0.00    -0.035 A 
ATOM      8  C22 <0> d           2.034  -2.894   4.758  0.00  0.00     0.009 A 
ATOM      9  C21 <0> d           2.076  -4.188   5.243  0.00  0.00     0.001 A 
ATOM     10  C20 <0> d           1.216  -5.144   4.737  0.00  0.00     0.000 A 
ATOM     11  C19 <0> d           0.311  -4.806   3.748  0.00  0.00     0.001 A 
ATOM     12  C18 <0> d           0.266  -3.511   3.266  0.00  0.00     0.009 A 
ENDBRANCH   4   7
BRANCH   4  13
ATOM     13  C23 <0> d           0.522  -0.211   4.295  0.00  0.00    -0.035 A 
ATOM     14  C28 <0> d          -0.568   0.587   4.003  0.00  0.00     0.009 A 
ATOM     15  C27 <0> d          -1.079   1.439   4.965  0.00  0.00     0.001 A 
ATOM     16  C26 <0> d          -0.493   1.499   6.215  0.00  0.00     0.000 A 
ATOM     17  C25 <0> d           0.600   0.705   6.506  0.00  0.00     0.001 A 
ATOM     18  C24 <0> d           1.108  -0.150   5.545  0.00  0.00     0.009 A 
ENDBRANCH   4  13
BRANCH   3  19
ATOM     19  C7  <0> d           2.662   0.822   3.021  0.00  0.00     0.036 C 
BRANCH  19  20
ATOM     20  C8  <0> d           4.038   1.252   2.509  0.00  0.00     0.235 C 
BRANCH  20  21
ATOM     21  N9  <0> d           4.210   2.696   2.718  0.00  0.00    -0.067 N 
ATOM     22  H10 <0> d           3.446   3.192   2.284  0.00  0.00     0.280 HD
ATOM     23  C15 <0> d           4.225   2.983   4.159  0.00  0.00     0.261 C 
ATOM     24  C14 <0> d           4.404   4.488   4.375  0.00  0.00     0.195 C 
ATOM     25  O13 <0> d           5.613   4.915   3.741  0.00  0.00    -0.388 OA
ATOM     26  C12 <0> d           5.656   4.635   2.339  0.00  0.00     0.195 C 
ATOM     27  C11 <0> d           5.479   3.130   2.119  0.00  0.00     0.261 C 
ENDBRANCH  20  21
ENDBRANCH  19  20
ENDBRANCH   3  19
BRANCH   1  28
ATOM     28  C2  <0> d           0.572  -0.920  -0.474  0.00  0.00     0.121 C 
ATOM     29  C1  <0> d           0.405   0.550  -0.867  0.00  0.00     0.026 C 
ENDBRANCH   1  28
TORSDOF 6
