REMARK  13 active torsions:
REMARK  status: ('A' for Active; 'I' for Inactive)
REMARK    1  A    between atoms: C2_2  and  O4_4 
REMARK    2  A    between atoms: C2_2  and  C5_5 
REMARK    3  A    between atoms: C10_10  and  C11_11 
REMARK    4  A    between atoms: C11_11  and  C12_12 
REMARK    5  A    between atoms: C12_12  and  C13_13 
REMARK    6  A    between atoms: C13_13  and  S15_14 
REMARK    7  A    between atoms: C13_13  and  C24_23 
REMARK    8  A    between atoms: S15_14  and  C16_15 
REMARK    9  A    between atoms: C16_15  and  C17_16 
REMARK   10  A    between atoms: C17_16  and  C18_17 
REMARK   11  A    between atoms: C18_17  and  C19_18 
REMARK   12  A    between atoms: C28_27  and  C29_28 
REMARK   13  A    between atoms: C30_29  and  C31_30 
ROOT
ATOM      1  C13 ZIN AC000       2.421  -0.347   2.768  0.00  0.00     0.080 C 
ENDROOT
BRANCH   1   2
ATOM      2  C12 ZIN AC000       1.485  -1.323   2.053  0.00  0.00     0.025 C 
BRANCH   2   3
ATOM      3  C11 ZIN AC000       0.880  -0.641   0.823  0.00  0.00     0.040 C 
BRANCH   3   4
ATOM      4  C10 ZIN AC000       0.050  -1.637   0.055  0.00  0.00    -0.049 A 
ATOM      5  C5  ZIN AC000      -1.320  -1.681   0.237  0.00  0.00    -0.019 A 
ATOM      6  C6  ZIN AC000      -2.082  -2.593  -0.468  0.00  0.00     0.011 A 
ATOM      7  C7  ZIN AC000      -1.474  -3.465  -1.352  0.00  0.00     0.001 A 
ATOM      8  C8  ZIN AC000      -0.104  -3.424  -1.531  0.00  0.00     0.001 A 
ATOM      9  C9  ZIN AC000       0.658  -2.511  -0.826  0.00  0.00     0.007 A 
BRANCH   5  10
ATOM     10  C2  ZIN AC000      -1.983  -0.730   1.201  0.00  0.00     0.078 C 
ATOM     11  C1  ZIN AC000      -1.785  -1.234   2.632  0.00  0.00     0.051 C 
ATOM     12  C3  ZIN AC000      -3.479  -0.651   0.891  0.00  0.00     0.051 C 
BRANCH  10  13
ATOM     13  O4  ZIN AC000      -1.400   0.567   1.067  0.00  0.00    -0.386 OA
ATOM     14  H49 ZIN AC000      -1.488   0.949   0.184  0.00  0.00     0.211 HD
ENDBRANCH  10  13
ENDBRANCH   5  10
ENDBRANCH   3   4
ENDBRANCH   2   3
ENDBRANCH   1   2
BRANCH   1  15
ATOM     15  S15 ZIN AC000       1.459   1.048   3.417  0.00  0.00    -0.159 SA
BRANCH  15  16
ATOM     16  C16 ZIN AC000       2.736   2.151   4.082  0.00  0.00     0.084 C 
BRANCH  16  17
ATOM     17  C17 ZIN AC000       2.076   3.396   4.676  0.00  0.00    -0.022 A 
ATOM     18  C23 ZIN AC000       2.973   4.381   5.427  0.00  0.00     0.011 A 
ATOM     19  C22 ZIN AC000       1.996   3.494   6.201  0.00  0.00     0.011 A 
BRANCH  17  20
ATOM     20  C18 ZIN AC000       0.912   3.975   3.869  0.00  0.00     0.123 C 
BRANCH  20  21
ATOM     21  C19 ZIN AC000       1.442   4.610   2.609  0.00  0.00     0.173 C 
ATOM     22  O20 ZIN AC000       2.641   4.625   2.391  0.00  0.00    -0.648 OA
ATOM     23  O21 ZIN AC000       0.670   5.108   1.806  0.00  0.00    -0.648 OA
ENDBRANCH  20  21
ENDBRANCH  17  20
ENDBRANCH  16  17
ENDBRANCH  15  16
ENDBRANCH   1  15
BRANCH   1  24
ATOM     24  C24 ZIN AC000       3.110  -1.054   3.906  0.00  0.00    -0.043 A 
ATOM     25  C42 ZIN AC000       4.486  -1.146   3.927  0.00  0.00     0.019 A 
ATOM     26  C28 ZIN AC000       5.123  -1.799   4.986  0.00  0.00    -0.036 A 
ATOM     27  C27 ZIN AC000       4.359  -2.363   6.012  0.00  0.00     0.011 A 
ATOM     28  C26 ZIN AC000       2.984  -2.267   5.975  0.00  0.00     0.001 A 
ATOM     29  C25 ZIN AC000       2.360  -1.615   4.925  0.00  0.00     0.008 A 
BRANCH  26  30
ATOM     30  C29 ZIN AC000       6.593  -1.897   5.018  0.00  0.00     0.014 C 
ATOM     31  C30 ZIN AC000       7.202  -2.529   6.035  0.00  0.00     0.032 C 
BRANCH  31  32
ATOM     32  C31 ZIN AC000       8.670  -2.627   6.067  0.00  0.00     0.057 A 
ATOM     33  N41 ZIN AC000       9.377  -2.087   5.088  0.00  0.00    -0.248 NA
ATOM     34  C40 ZIN AC000      10.710  -2.148   5.081  0.00  0.00     0.069 A 
ATOM     35  C34 ZIN AC000      11.395  -2.811   6.131  0.00  0.00    -0.007 A 
ATOM     36  C39 ZIN AC000      11.455  -1.567   4.039  0.00  0.00     0.056 A 
ATOM     37  C33 ZIN AC000      10.651  -3.395   7.177  0.00  0.00     0.016 A 
ATOM     38  C35 ZIN AC000      12.796  -2.876   6.113  0.00  0.00     0.015 A 
ATOM     39  C32 ZIN AC000       9.293  -3.298   7.136  0.00  0.00     0.032 A 
ATOM     40  C36 ZIN AC000      13.485  -2.302   5.087  0.00  0.00     0.025 A 
ATOM     41  C37 ZIN AC000      12.815  -1.649   4.053  0.00  0.00     0.036 A 
ATOM     42 Cl38 ZIN AC000      13.728  -0.929   2.764  0.00  0.00    -0.084 Cl
ENDBRANCH  31  32
ENDBRANCH  26  30
ENDBRANCH   1  24
TORSDOF 13
