REMARK  3 active torsions:
REMARK  status: ('A' for Active; 'I' for Inactive)
REMARK    1  A    between atoms: N4_4  and  N5_5 
REMARK    2  A    between atoms: C6_6  and  C7_7 
REMARK    3  A    between atoms: C10_10  and  N11_11 
ROOT
ATOM      1  N5  ZIN AC000      -1.319   4.576   0.055  0.00  0.00    -0.177 NA
ATOM      2  C6  ZIN AC000      -0.663   5.739   0.146  0.00  0.00     0.176 C 
ENDROOT
BRANCH   2   3
ATOM      3  C7  ZIN AC000       0.717   5.756   0.125  0.00  0.00     0.097 A 
ATOM      4  O14 ZIN AC000       1.535   4.698  -0.082  0.00  0.00    -0.287 OA
ATOM      5  C10 ZIN AC000       2.807   5.102  -0.033  0.00  0.00     0.215 A 
ATOM      6  C9  ZIN AC000       2.866   6.474   0.223  0.00  0.00     0.065 A 
ATOM      7  C8  ZIN AC000       1.587   6.932   0.331  0.00  0.00     0.043 A 
BRANCH   5   8
ATOM      8  N11 ZIN AC000       3.989   4.219  -0.219  0.00  0.00    -0.090 N 
ATOM      9  O12 ZIN AC000       5.204   4.721  -0.145  0.00  0.00    -0.530 OA
ATOM     10  O13 ZIN AC000       3.820   2.934  -0.457  0.00  0.00    -0.530 OA
ENDBRANCH   5   8
ENDBRANCH   2   3
BRANCH   1  11
ATOM     11  N4  ZIN AC000      -0.666   3.463   0.073  0.00  0.00    -0.209 N 
ATOM     12  C3  ZIN AC000      -0.501   2.521  -1.047  0.00  0.00     0.261 A 
ATOM     13  C2  ZIN AC000       0.346   1.411  -0.456  0.00  0.00     0.267 A 
ATOM     14  O1  ZIN AC000       0.735   0.409  -1.018  0.00  0.00    -0.269 OA
ATOM     15  N17 ZIN AC000       0.570   1.766   0.824  0.00  0.00    -0.155 NA
ATOM     16  C15 ZIN AC000      -0.004   2.938   1.120  0.00  0.00     0.368 A 
ATOM     17  O16 ZIN AC000       0.062   3.466   2.211  0.00  0.00    -0.243 OA
ENDBRANCH   1  11
TORSDOF 3
