REMARK  8 active torsions:
REMARK  status: ('A' for Active; 'I' for Inactive)
REMARK    1  A    between atoms: N1_1  and  C5_5 
REMARK    2  A    between atoms: C5_5  and  C6_6 
REMARK    3  A    between atoms: C6_6  and  C7_7 
REMARK    4  A    between atoms: C7_7  and  O8_8 
REMARK    5  A    between atoms: C7_7  and  P9_9 
REMARK    6  A    between atoms: C7_7  and  P13_13 
REMARK    7  A    between atoms: P9_9  and  O12_12 
REMARK    8  A    between atoms: P13_13  and  O16_16 
ROOT
ATOM      1  C7  RES d   1      -0.675   1.465   3.715  0.00  0.00     0.270 C 
ENDROOT
BRANCH   1   2
ATOM      2  C6  RES d   1       0.041   0.972   2.456  0.00  0.00     0.093 C 
BRANCH   2   3
ATOM      3  C5  RES d   1      -0.699   1.479   1.216  0.00  0.00     0.234 C 
BRANCH   3   4
ATOM      4  N1  RES d   1      -0.012   1.005   0.008  0.00  0.00    -0.079 N 
ATOM      5  H2  RES d   1       0.002  -0.004   0.002  0.00  0.00     0.274 HD
ATOM      6  H3  RES d   1       0.935   1.354   0.000  0.00  0.00     0.274 HD
ATOM      7  H4  RES d   1      -0.500   1.339  -0.810  0.00  0.00     0.274 HD
ENDBRANCH   3   4
ENDBRANCH   2   3
ENDBRANCH   1   2
BRANCH   1   8
ATOM      8  O8  RES d   1      -0.695   2.894   3.722  0.00  0.00    -0.366 OA
ATOM      9  H21 RES d   1       0.183   3.299   3.716  0.00  0.00     0.212 HD
ENDBRANCH   1   8
BRANCH   1  10
ATOM     10  P9  RES d   1      -2.386   0.834   3.728  0.00  0.00     0.296 P 
ATOM     11  O10 RES d   1      -3.109   1.332   4.999  0.00  0.00    -0.644 OA
ATOM     12  O11 RES d   1      -3.133   1.346   2.476  0.00  0.00    -0.644 OA
BRANCH  10  13
ATOM     13  O12 RES d   1      -2.364  -0.776   3.719  0.00  0.00    -0.320 OA
ATOM     14  H22 RES d   1      -3.242  -1.181   3.725  0.00  0.00     0.221 HD
ENDBRANCH  10  13
ENDBRANCH   1  10
BRANCH   1  15
ATOM     15  P13 RES d   1       0.206   0.861   5.191  0.00  0.00     0.296 P 
ATOM     16  O14 RES d   1       0.227  -0.684   5.183  0.00  0.00    -0.644 OA
ATOM     17  O15 RES d   1      -0.517   1.359   6.463  0.00  0.00    -0.644 OA
BRANCH  15  18
ATOM     18  O16 RES d   1       1.717   1.419   5.180  0.00  0.00    -0.320 OA
ATOM     19  H23 RES d   1       2.246   1.136   5.939  0.00  0.00     0.221 HD
ENDBRANCH  15  18
ENDBRANCH   1  15
TORSDOF 8
