REMARK  7 active torsions:
REMARK  status: ('A' for Active; 'I' for Inactive)
REMARK    1  A    between atoms: O2_2  and  C3_3 
REMARK    2  A    between atoms: C6_6  and  N7_7 
REMARK       I    between atoms: N7_7  and  C8_8 
REMARK    3  A    between atoms: C8_8  and  C10_10 
REMARK    4  A    between atoms: C13_13  and  C14_14 
REMARK    5  A    between atoms: C14_14  and  N18_18 
REMARK    6  A    between atoms: C23_23  and  C24_24 
REMARK       I    between atoms: C24_24  and  N26_26 
REMARK    7  A    between atoms: N26_26  and  C27_27 
ROOT
ATOM      1  C3  ZIN AC000      10.051   1.306   2.959  0.00  0.00     0.069 A 
ATOM      2  C4  ZIN AC000      10.107   1.888   1.698  0.00  0.00     0.039 A 
ATOM      3  C5  ZIN AC000       9.990   1.110   0.565  0.00  0.00     0.033 A 
ATOM      4  C6  ZIN AC000       9.816  -0.263   0.676  0.00  0.00     0.051 A 
ATOM      5  C23 ZIN AC000       9.759  -0.857   1.946  0.00  0.00     0.061 A 
ATOM      6  C34 ZIN AC000       9.884  -0.061   3.087  0.00  0.00     0.056 A 
ENDROOT
BRANCH   4   7
ATOM      7  N7  ZIN AC000       9.698  -1.048  -0.469  0.00  0.00    -0.322 N 
ATOM      8  C8  ZIN AC000      10.319  -0.679  -1.606  0.00  0.00     0.256 C 
ATOM      9  O9  ZIN AC000      11.079   0.270  -1.603  0.00  0.00    -0.267 OA
ATOM     10  H40 ZIN AC000       9.169  -1.861  -0.447  0.00  0.00     0.169 HD
BRANCH   8  11
ATOM     11  C10 ZIN AC000      10.076  -1.427  -2.858  0.00  0.00     0.032 A 
ATOM     12  C22 ZIN AC000      10.720  -1.045  -4.037  0.00  0.00     0.018 A 
ATOM     13  C21 ZIN AC000      10.498  -1.747  -5.201  0.00  0.00     0.016 A 
ATOM     14  C13 ZIN AC000       9.622  -2.832  -5.206  0.00  0.00     0.007 A 
ATOM     15  C12 ZIN AC000       8.974  -3.211  -4.030  0.00  0.00     0.016 A 
ATOM     16  C11 ZIN AC000       9.199  -2.514  -2.863  0.00  0.00     0.018 A 
BRANCH  14  17
ATOM     17  C14 ZIN AC000       9.379  -3.582  -6.460  0.00  0.00     0.106 C 
ATOM     18  N15 ZIN AC000       9.317  -2.949  -7.596  0.00  0.00    -0.385 N 
ATOM     19  H16 ZIN AC000       9.158  -3.440  -8.417  0.00  0.00     0.157 HD
ATOM     20  H17 ZIN AC000       9.430  -1.986  -7.621  0.00  0.00     0.157 HD
BRANCH  17  21
ATOM     21  N18 ZIN AC000       9.218  -4.950  -6.424  0.00  0.00    -0.376 N 
ATOM     22  C19 ZIN AC000       8.862  -5.678  -7.645  0.00  0.00     0.150 C 
ATOM     23  C20 ZIN AC000       9.402  -5.677  -5.166  0.00  0.00     0.150 C 
ENDBRANCH  17  21
ENDBRANCH  14  17
ENDBRANCH   8  11
ENDBRANCH   4   7
BRANCH   5  24
ATOM     24  C24 ZIN AC000       9.575  -2.314   2.075  0.00  0.00     0.259 C 
ATOM     25  O25 ZIN AC000       9.648  -3.026   1.092  0.00  0.00    -0.267 OA
ATOM     26  N26 ZIN AC000       9.325  -2.858   3.283  0.00  0.00    -0.307 N 
ATOM     27  H51 ZIN AC000       9.179  -2.284   4.052  0.00  0.00     0.170 HD
BRANCH  26  28
ATOM     28  C27 ZIN AC000       9.275  -4.243   3.427  0.00  0.00     0.130 A 
ATOM     29  N33 ZIN AC000       9.597  -5.020   2.405  0.00  0.00    -0.242 NA
ATOM     30  C32 ZIN AC000       9.568  -6.336   2.500  0.00  0.00     0.142 A 
ATOM     31  C30 ZIN AC000       9.186  -6.953   3.677  0.00  0.00     0.051 A 
ATOM     32  C29 ZIN AC000       8.836  -6.172   4.771  0.00  0.00     0.029 A 
ATOM     33 Cl31 ZIN AC000       9.146  -8.685   3.786  0.00  0.00    -0.083 Cl
ATOM     34  C28 ZIN AC000       8.882  -4.795   4.641  0.00  0.00     0.052 A 
ENDBRANCH  26  28
ENDBRANCH   5  24
BRANCH   1  35
ATOM     35  O2  ZIN AC000      10.168   2.081   4.069  0.00  0.00    -0.356 OA
ATOM     36  C1  ZIN AC000      10.338   3.485   3.865  0.00  0.00     0.210 C 
ENDBRANCH   1  35
TORSDOF 7
