REMARK  2 active torsions:
REMARK  status: ('A' for Active; 'I' for Inactive)
REMARK    1  A    between atoms: C2_2  and  C4_4 
REMARK    2  A    between atoms: C9_9  and  O10_10 
ROOT
ATOM      1  C4  <0> d          -1.299   1.938   0.019  0.00  0.00     0.073 A 
ATOM      2  C5  <0> d          -2.503   1.226   0.026  0.00  0.00     0.021 A 
ATOM      3  C6  <0> d          -3.701   1.905   0.036  0.00  0.00     0.001 A 
ATOM      4  C7  <0> d          -3.720   3.291   0.038  0.00  0.00     0.003 A 
ATOM      5  C8  <0> d          -2.540   4.006   0.030  0.00  0.00     0.037 A 
ATOM      6  C9  <0> d          -1.323   3.341   0.026  0.00  0.00     0.082 A 
ENDROOT
BRANCH   1   7
ATOM      7  C2  <0> d          -0.015   1.219   0.009  0.00  0.00     0.212 C 
ATOM      8  O1  <0> d           0.002  -0.004   0.002  0.00  0.00    -0.644 OA
ATOM      9  O3  <0> d           1.036   1.845   0.002  0.00  0.00    -0.644 OA
ENDBRANCH   1   7
BRANCH   6  10
ATOM     10  O10 <0> d          -0.163   4.042   0.019  0.00  0.00    -0.360 OA
ATOM     11  H15 <0> d           0.178   4.249   0.900  0.00  0.00     0.217 HD
ENDBRANCH   6  10
TORSDOF 2
