REMARK  4 active torsions:
REMARK  status: ('A' for Active; 'I' for Inactive)
REMARK    1  A    between atoms: O2_2  and  C3_3 
REMARK    2  A    between atoms: C3_3  and  C5_5 
REMARK    3  A    between atoms: C5_5  and  C7_6 
REMARK    4  A    between atoms: C5_5  and  C13_12 
ROOT
ATOM      1  C5  ZIN AC000      -1.244  -2.135   0.003  0.00  0.00     0.149 C 
ENDROOT
BRANCH   1   2
ATOM      2  C3  ZIN AC000      -1.185  -0.630   0.010  0.00  0.00     0.269 C 
ATOM      3  O4  ZIN AC000      -2.208   0.015   0.023  0.00  0.00    -0.264 OA
BRANCH   2   4
ATOM      4  O2  ZIN AC000       0.002  -0.004   0.002  0.00  0.00    -0.326 OA
ATOM      5  C1  ZIN AC000      -0.018   1.448   0.010  0.00  0.00     0.213 C 
ENDBRANCH   2   4
ENDBRANCH   1   2
BRANCH   1   6
ATOM      6  C7  ZIN AC000      -2.683  -2.582   0.014  0.00  0.00    -0.043 A 
ATOM      7  C12 ZIN AC000      -3.156  -3.365   1.051  0.00  0.00     0.008 A 
ATOM      8  C11 ZIN AC000      -4.477  -3.771   1.063  0.00  0.00     0.001 A 
ATOM      9  C10 ZIN AC000      -5.323  -3.403   0.034  0.00  0.00     0.000 A 
ATOM     10  C9  ZIN AC000      -4.849  -2.625  -1.005  0.00  0.00     0.001 A 
ATOM     11  C8  ZIN AC000      -3.529  -2.215  -1.016  0.00  0.00     0.008 A 
ENDBRANCH   1   6
BRANCH   1  12
ATOM     12  C13 ZIN AC000      -0.555  -2.666  -1.256  0.00  0.00     0.203 C 
ATOM     13  N19 ZIN AC000       0.846  -2.229  -1.268  0.00  0.00    -0.070 N 
ATOM     14  C18 ZIN AC000       1.495  -2.669  -2.509  0.00  0.00     0.232 C 
ATOM     15  H20 ZIN AC000       0.884  -1.223  -1.208  0.00  0.00     0.277 HD
ATOM     16  H21 ZIN AC000       1.328  -2.630  -0.477  0.00  0.00     0.277 HD
ATOM     17  C17 ZIN AC000       1.513  -4.198  -2.565  0.00  0.00     0.027 C 
ATOM     18  C16 ZIN AC000       0.074  -4.722  -2.526  0.00  0.00     0.004 C 
ATOM     19  C15 ZIN AC000      -0.616  -4.195  -1.264  0.00  0.00     0.034 C 
ENDBRANCH   1  12
TORSDOF 4
