REMARK  10 active torsions:
REMARK  status: ('A' for Active; 'I' for Inactive)
REMARK    1  A    between atoms: O2_2  and  C3_3 
REMARK    2  A    between atoms: C8_8  and  O9_9 
REMARK    3  A    between atoms: O9_9  and  C10_10 
REMARK    4  A    between atoms: C10_10  and  C11_11 
REMARK    5  A    between atoms: C11_11  and  O13_12 
REMARK    6  A    between atoms: C11_11  and  C14_13 
REMARK    7  A    between atoms: C14_13  and  N15_14 
REMARK    8  A    between atoms: N19_18  and  C20_19 
REMARK    9  A    between atoms: C20_19  and  C21_20 
REMARK       I    between atoms: C21_20  and  N23_22 
REMARK   10  A    between atoms: N23_22  and  C24_23 
ROOT
ATOM      1  N15 ZIN AC000       5.246  -6.463  -1.550  0.00  0.00    -0.065 N 
ATOM      2  H16 ZIN AC000       5.828  -6.878  -2.263  0.00  0.00     0.280 HD
ATOM      3  C17 ZIN AC000       4.066  -7.309  -1.327  0.00  0.00     0.265 C 
ATOM      4  C18 ZIN AC000       4.515  -8.706  -0.892  0.00  0.00     0.300 C 
ATOM      5  N19 ZIN AC000       5.304  -8.602   0.343  0.00  0.00     0.100 N 
ATOM      6  C32 ZIN AC000       6.476  -7.737   0.142  0.00  0.00     0.300 C 
ATOM      7  C33 ZIN AC000       6.011  -6.348  -0.301  0.00  0.00     0.265 C 
ENDROOT
BRANCH   1   8
ATOM      8  C14 ZIN AC000       4.816  -5.128  -1.985  0.00  0.00     0.268 C 
BRANCH   8   9
ATOM      9  C11 ZIN AC000       3.966  -5.253  -3.251  0.00  0.00     0.168 C 
BRANCH   9  10
ATOM     10  C10 ZIN AC000       3.530  -3.861  -3.712  0.00  0.00     0.209 C 
BRANCH  10  11
ATOM     11  O9  ZIN AC000       2.642  -3.985  -4.825  0.00  0.00    -0.346 OA
BRANCH  11  12
ATOM     12  C8  ZIN AC000       2.158  -2.832  -5.360  0.00  0.00     0.102 A 
ATOM     13  C3  ZIN AC000       1.297  -2.877  -6.452  0.00  0.00     0.101 A 
ATOM     14  C4  ZIN AC000       0.808  -1.700  -6.994  0.00  0.00     0.039 A 
ATOM     15  C5  ZIN AC000       1.179  -0.483  -6.452  0.00  0.00     0.003 A 
ATOM     16  C6  ZIN AC000       2.038  -0.437  -5.371  0.00  0.00     0.003 A 
ATOM     17  C7  ZIN AC000       2.531  -1.609  -4.826  0.00  0.00     0.039 A 
BRANCH  13  18
ATOM     18  O2  ZIN AC000       0.933  -4.075  -6.984  0.00  0.00    -0.353 OA
ATOM     19  C1  ZIN AC000       0.046  -4.045  -8.104  0.00  0.00     0.210 C 
ENDBRANCH  13  18
ENDBRANCH  11  12
ENDBRANCH  10  11
ENDBRANCH   9  10
BRANCH   9  20
ATOM     20  O13 ZIN AC000       4.734  -5.878  -4.281  0.00  0.00    -0.392 OA
ATOM     21  H43 ZIN AC000       5.535  -5.394  -4.522  0.00  0.00     0.210 HD
ENDBRANCH   9  20
ENDBRANCH   8   9
ENDBRANCH   1   8
BRANCH   5  22
ATOM     22  C20 ZIN AC000       5.706  -9.930   0.825  0.00  0.00     0.375 C 
BRANCH  22  23
ATOM     23  C21 ZIN AC000       6.295  -9.806   2.207  0.00  0.00     0.250 C 
ATOM     24  O22 ZIN AC000       6.371  -8.719   2.738  0.00  0.00    -0.271 OA
ATOM     25  N23 ZIN AC000       6.735 -10.904   2.852  0.00  0.00    -0.325 N 
ATOM     26  H52 ZIN AC000       6.725 -11.766   2.407  0.00  0.00     0.169 HD
BRANCH  25  27
ATOM     27  C24 ZIN AC000       7.208 -10.801   4.165  0.00  0.00     0.046 A 
ATOM     28  C30 ZIN AC000       6.414 -10.225   5.148  0.00  0.00    -0.035 A 
ATOM     29  C29 ZIN AC000       6.881 -10.131   6.444  0.00  0.00     0.009 A 
ATOM     30  C31 ZIN AC000       5.038  -9.717   4.803  0.00  0.00     0.050 C 
ATOM     31  C28 ZIN AC000       8.144 -10.598   6.761  0.00  0.00     0.001 A 
ATOM     32  C27 ZIN AC000       8.940 -11.166   5.784  0.00  0.00     0.009 A 
ATOM     33  C25 ZIN AC000       8.476 -11.269   4.487  0.00  0.00    -0.035 A 
ATOM     34  C26 ZIN AC000       9.344 -11.888   3.422  0.00  0.00     0.050 C 
ENDBRANCH  25  27
ENDBRANCH  22  23
ENDBRANCH   5  22
TORSDOF 10
