REMARK  4 active torsions:
REMARK  status: ('A' for Active; 'I' for Inactive)
REMARK    1  A    between atoms: N2_2  and  C3_3 
REMARK    2  A    between atoms: C3_3  and  C4_4 
REMARK    3  A    between atoms: C14_14  and  O15_15 
REMARK    4  A    between atoms: C24_23  and  O25_24 
ROOT
ATOM      1  C1  ZIN AC000       0.098   1.301  -0.409  0.00  0.00     0.273 C 
ATOM      2  N2  ZIN AC000       0.033  -0.124  -0.058  0.00  0.00    -0.063 N 
ATOM      3  C7  ZIN AC000       0.588  -0.917  -1.160  0.00  0.00     0.239 C 
ATOM      4  C8  ZIN AC000       0.498  -2.412  -0.828  0.00  0.00     0.048 C 
ATOM      5  C9  ZIN AC000       1.258  -2.659   0.473  0.00  0.00     0.058 C 
ATOM      6  C10 ZIN AC000       2.683  -2.188   0.323  0.00  0.00    -0.001 A 
ATOM      7  C11 ZIN AC000       3.155  -0.915   0.548  0.00  0.00    -0.046 A 
ATOM      8  C12 ZIN AC000       4.509  -0.727   0.327  0.00  0.00     0.011 A 
ATOM      9  C13 ZIN AC000       5.311  -1.794  -0.038  0.00  0.00     0.040 A 
ATOM     10  C14 ZIN AC000       4.833  -3.095  -0.184  0.00  0.00     0.099 A 
ATOM     11  C16 ZIN AC000       3.464  -3.296   0.027  0.00  0.00     0.110 A 
ATOM     12  O17 ZIN AC000       2.710  -4.416   0.033  0.00  0.00    -0.334 OA
ATOM     13  C18 ZIN AC000       1.465  -4.143   0.744  0.00  0.00     0.214 C 
ATOM     14  C20 ZIN AC000       1.704  -4.444   2.193  0.00  0.00     0.157 C 
ATOM     15  O21 ZIN AC000       2.314  -5.447   2.479  0.00  0.00    -0.295 OA
ATOM     16  C22 ZIN AC000       1.223  -3.560   3.304  0.00  0.00     0.084 C 
ATOM     17  C23 ZIN AC000       1.415  -2.091   2.922  0.00  0.00     0.048 C 
ATOM     18  C24 ZIN AC000       0.658  -1.820   1.590  0.00  0.00     0.102 C 
ATOM     19  C26 ZIN AC000       0.783  -0.350   1.182  0.00  0.00     0.229 C 
ATOM     20  C28 ZIN AC000       2.215   0.138   1.037  0.00  0.00     0.076 C 
ENDROOT
BRANCH   2  21
ATOM     21  C3  ZIN AC000      -1.371  -0.506   0.151  0.00  0.00     0.242 C 
BRANCH  21  22
ATOM     22  C4  ZIN AC000      -2.196  -0.102  -1.072  0.00  0.00     0.012 A 
ATOM     23  C6  ZIN AC000      -3.709  -0.324  -1.008  0.00  0.00     0.007 A 
ATOM     24  C5  ZIN AC000      -2.840  -1.223  -1.891  0.00  0.00     0.007 A 
ENDBRANCH  21  22
ENDBRANCH   2  21
BRANCH  18  25
ATOM     25  O25 ZIN AC000      -0.723  -2.154   1.748  0.00  0.00    -0.386 OA
ATOM     26  H50 ZIN AC000      -1.173  -1.649   2.439  0.00  0.00     0.210 HD
ENDBRANCH  18  25
BRANCH  10  27
ATOM     27  O15 ZIN AC000       5.659  -4.123  -0.515  0.00  0.00    -0.358 OA
ATOM     28  H45 ZIN AC000       6.052  -4.572   0.245  0.00  0.00     0.217 HD
ENDBRANCH  10  27
TORSDOF 4
