REMARK  8 active torsions:
REMARK  status: ('A' for Active; 'I' for Inactive)
REMARK    1  A    between atoms: C4_3  and  N6_4 
REMARK       I    between atoms: N6_4  and  C7_5 
REMARK    2  A    between atoms: C7_5  and  C9_7 
REMARK    3  A    between atoms: C9_7  and  C18_16 
REMARK    4  A    between atoms: N10_8  and  O11_9 
REMARK    5  A    between atoms: O11_9  and  C12_10 
REMARK    6  A    between atoms: C12_10  and  C15_13 
REMARK    7  A    between atoms: C21_19  and  N22_20 
REMARK    8  A    between atoms: N26_24  and  S27_25 
ROOT
ATOM      1  C9  ZIN AC000      -0.695  -2.865  -3.934  0.00  0.00     0.180 C 
ATOM      2  N10 ZIN AC000      -1.616  -3.422  -3.201  0.00  0.00    -0.125 NA
ENDROOT
BRANCH   1   3
ATOM      3  C7  ZIN AC000       0.228  -1.871  -3.336  0.00  0.00     0.275 C 
ATOM      4  N6  ZIN AC000       1.108  -1.214  -4.116  0.00  0.00    -0.340 N 
ATOM      5  H34 ZIN AC000       1.192  -1.445  -5.054  0.00  0.00     0.163 HD
ATOM      6  O8  ZIN AC000       0.190  -1.649  -2.142  0.00  0.00    -0.266 OA
BRANCH   4   7
ATOM      7  C4  ZIN AC000       1.940  -0.150  -3.547  0.00  0.00     0.202 A 
ATOM      8  C2  ZIN AC000       3.251   0.093  -4.294  0.00  0.00     0.135 A 
ATOM      9  C1  ZIN AC000       4.467   0.149  -3.367  0.00  0.00     0.036 C 
ATOM     10  N26 ZIN AC000       2.785   1.418  -4.707  0.00  0.00    -0.218 N 
ATOM     11  C24 ZIN AC000       1.622   1.229  -4.059  0.00  0.00     0.260 A 
ATOM     12  O25 ZIN AC000       0.645   1.935  -3.929  0.00  0.00    -0.270 OA
BRANCH  10  13
ATOM     13  S27 ZIN AC000       3.429   2.648  -5.609  0.00  0.00     0.214 S 
ATOM     14  O28 ZIN AC000       4.319   2.034  -6.582  0.00  0.00    -0.578 OA
ATOM     15  O29 ZIN AC000       2.313   3.331  -6.244  0.00  0.00    -0.578 OA
ATOM     16  O30 ZIN AC000       4.144   3.515  -4.685  0.00  0.00    -0.578 OA
ENDBRANCH  10  13
ENDBRANCH   4   7
ENDBRANCH   1   3
BRANCH   1  17
ATOM     17  C18 ZIN AC000      -0.570  -3.223  -5.363  0.00  0.00     0.102 A 
ATOM     18  N23 ZIN AC000       0.284  -2.608  -6.182  0.00  0.00    -0.222 NA
ATOM     19  C21 ZIN AC000       0.308  -3.011  -7.413  0.00  0.00     0.164 A 
ATOM     20  S20 ZIN AC000      -0.865  -4.305  -7.632  0.00  0.00    -0.062 SA
ATOM     21  C19 ZIN AC000      -1.314  -4.191  -5.933  0.00  0.00     0.087 A 
BRANCH  19  22
ATOM     22  N22 ZIN AC000       1.127  -2.500  -8.406  0.00  0.00    -0.378 N 
ATOM     23  H42 ZIN AC000       1.080  -2.857  -9.306  0.00  0.00     0.158 HD
ATOM     24  H43 ZIN AC000       1.749  -1.784  -8.200  0.00  0.00     0.158 HD
ENDBRANCH  19  22
ENDBRANCH   1  17
BRANCH   2  25
ATOM     25  O11 ZIN AC000      -1.810  -2.998  -1.863  0.00  0.00    -0.234 OA
BRANCH  25  26
ATOM     26  C12 ZIN AC000      -2.852  -3.695  -1.178  0.00  0.00     0.171 C 
ATOM     27  C13 ZIN AC000      -4.177  -3.484  -1.914  0.00  0.00     0.060 C 
ATOM     28  C14 ZIN AC000      -2.525  -5.189  -1.135  0.00  0.00     0.060 C 
BRANCH  26  29
ATOM     29  C15 ZIN AC000      -2.969  -3.167   0.229  0.00  0.00     0.211 C 
ATOM     30  O16 ZIN AC000      -2.229  -2.276   0.609  0.00  0.00    -0.646 OA
ATOM     31  O17 ZIN AC000      -3.805  -3.630   0.986  0.00  0.00    -0.646 OA
ENDBRANCH  26  29
ENDBRANCH  25  26
ENDBRANCH   2  25
TORSDOF 8
