REMARK  13 active torsions:
REMARK  status: ('A' for Active; 'I' for Inactive)
REMARK    1  A    between atoms: C9_9  and  C11_11 
REMARK    2  A    between atoms: C11_11  and  C12_12 
REMARK    3  A    between atoms: C12_12  and  C13_13 
REMARK    4  A    between atoms: C13_13  and  C14_14 
REMARK    5  A    between atoms: C14_14  and  C17_16 
REMARK    6  A    between atoms: C17_16  and  C18_17 
REMARK    7  A    between atoms: C18_17  and  C19_18 
REMARK    8  A    between atoms: C19_18  and  C20_19 
REMARK    9  A    between atoms: C20_19  and  C23_21 
REMARK   10  A    between atoms: C23_21  and  C24_22 
REMARK   11  A    between atoms: C24_22  and  C25_23 
REMARK   12  A    between atoms: C25_23  and  C26_24 
REMARK   13  A    between atoms: C32_30  and  O33_31 
ROOT
ATOM      1  C1  ZIN AC000      -0.018   1.503   0.010  0.00  0.00     0.052 C 
ATOM      2  C2  ZIN AC000       0.002  -0.004   0.002  0.00  0.00    -0.020 A 
ATOM      3  C3  ZIN AC000       0.006  -0.688  -1.196  0.00  0.00    -0.019 A 
ATOM      4  C4  ZIN AC000      -0.012   0.074  -2.495  0.00  0.00     0.052 C 
ATOM      5  C5  ZIN AC000       0.026  -2.079  -1.209  0.00  0.00     0.083 A 
ATOM      6  C6  ZIN AC000       0.043  -2.778  -0.015  0.00  0.00    -0.015 A 
ATOM      7  C7  ZIN AC000       0.072  -4.285   0.013  0.00  0.00     0.045 C 
ATOM      8  C8  ZIN AC000      -0.362  -4.835  -1.348  0.00  0.00     0.043 C 
ATOM      9  C9  ZIN AC000       0.416  -4.088  -2.440  0.00  0.00     0.064 C 
ATOM     10  C10 ZIN AC000       1.918  -4.202  -2.172  0.00  0.00     0.046 C 
ATOM     11  O29 ZIN AC000       0.025  -2.715  -2.411  0.00  0.00    -0.339 OA
ATOM     12  C30 ZIN AC000       0.037  -2.090   1.187  0.00  0.00    -0.019 A 
ATOM     13  C31 ZIN AC000       0.053  -2.852   2.487  0.00  0.00     0.052 C 
ATOM     14  C32 ZIN AC000       0.023  -0.705   1.199  0.00  0.00     0.078 A 
ENDROOT
BRANCH   9  15
ATOM     15  C11 ZIN AC000       0.089  -4.689  -3.808  0.00  0.00     0.038 C 
BRANCH  15  16
ATOM     16  C12 ZIN AC000       0.959  -4.026  -4.878  0.00  0.00     0.003 C 
BRANCH  16  17
ATOM     17  C13 ZIN AC000       0.632  -4.627  -6.246  0.00  0.00     0.004 C 
BRANCH  17  18
ATOM     18  C14 ZIN AC000       1.502  -3.963  -7.316  0.00  0.00    -0.019 C 
ATOM     19  C16 ZIN AC000       1.133  -2.482  -7.426  0.00  0.00     0.010 C 
BRANCH  18  20
ATOM     20  C17 ZIN AC000       1.265  -4.649  -8.663  0.00  0.00     0.004 C 
BRANCH  20  21
ATOM     21  C18 ZIN AC000       2.224  -4.070  -9.705  0.00  0.00     0.001 C 
BRANCH  21  22
ATOM     22  C19 ZIN AC000       1.988  -4.755 -11.052  0.00  0.00     0.004 C 
BRANCH  22  23
ATOM     23  C20 ZIN AC000       2.947  -4.176 -12.094  0.00  0.00    -0.019 C 
ATOM     24  C22 ZIN AC000       2.616  -2.701 -12.328  0.00  0.00     0.010 C 
BRANCH  23  25
ATOM     25  C23 ZIN AC000       2.798  -4.946 -13.408  0.00  0.00     0.004 C 
BRANCH  25  26
ATOM     26  C24 ZIN AC000       3.842  -4.451 -14.411  0.00  0.00     0.001 C 
BRANCH  26  27
ATOM     27  C25 ZIN AC000       3.693  -5.221 -15.725  0.00  0.00     0.004 C 
BRANCH  27  28
ATOM     28  C26 ZIN AC000       4.737  -4.725 -16.727  0.00  0.00    -0.023 C 
ATOM     29  C27 ZIN AC000       6.138  -5.066 -16.215  0.00  0.00     0.009 C 
ATOM     30  C28 ZIN AC000       4.510  -5.405 -18.079  0.00  0.00     0.009 C 
ENDBRANCH  27  28
ENDBRANCH  26  27
ENDBRANCH  25  26
ENDBRANCH  23  25
ENDBRANCH  22  23
ENDBRANCH  21  22
ENDBRANCH  20  21
ENDBRANCH  18  20
ENDBRANCH  17  18
ENDBRANCH  16  17
ENDBRANCH  15  16
ENDBRANCH   9  15
BRANCH  14  31
ATOM     31  O33 ZIN AC000       0.018  -0.034   2.382  0.00  0.00    -0.360 OA
ATOM     32  H81 ZIN AC000       0.900   0.169   2.722  0.00  0.00     0.217 HD
ENDBRANCH  14  31
TORSDOF 13
