REMARK  11 active torsions:
REMARK  status: ('A' for Active; 'I' for Inactive)
REMARK    1  A    between atoms: N1_1  and  C2_2 
REMARK    2  A    between atoms: N9_9  and  C10_10 
REMARK    3  A    between atoms: C12_12  and  C14_13 
REMARK    4  A    between atoms: C14_13  and  N15_14 
REMARK    5  A    between atoms: N15_14  and  C16_15 
REMARK    6  A    between atoms: C19_18  and  C20_19 
REMARK       I    between atoms: C20_19  and  N22_21 
REMARK    7  A    between atoms: N22_21  and  C23_22 
REMARK    8  A    between atoms: C23_22  and  C25_23 
REMARK    9  A    between atoms: C23_22  and  C30_28 
REMARK   10  A    between atoms: C25_23  and  C26_24 
REMARK   11  A    between atoms: C26_24  and  C27_25 
ROOT
ATOM      1  N15 ZIN AC000      -0.296  -5.289  -2.559  0.00  0.00    -0.388 N 
ATOM      2  H42 ZIN AC000       0.462  -5.616  -2.050  0.00  0.00     0.159 HD
ENDROOT
BRANCH   1   3
ATOM      3  C14 ZIN AC000      -1.466  -4.744  -1.865  0.00  0.00     0.147 C 
BRANCH   3   4
ATOM      4  C12 ZIN AC000      -1.236  -4.806  -0.353  0.00  0.00     0.128 C 
ATOM      5  N9  ZIN AC000       0.019  -4.117  -0.012  0.00  0.00    -0.309 N 
ATOM      6  C5  ZIN AC000       0.035  -2.707  -0.021  0.00  0.00     0.155 A 
ATOM      7  C4  ZIN AC000      -1.159  -1.996  -0.013  0.00  0.00     0.175 A 
ATOM      8  C6  ZIN AC000       1.245  -2.004  -0.034  0.00  0.00     0.314 A 
ATOM      9  N3  ZIN AC000      -1.131  -0.659  -0.016  0.00  0.00    -0.043 NA
ATOM     10  N36 ZIN AC000      -2.365  -2.675  -0.005  0.00  0.00    -0.370 N 
ATOM     11  C2  ZIN AC000       0.011  -0.004  -0.028  0.00  0.00     0.725 A 
ATOM     12  N8  ZIN AC000       1.206  -0.654  -0.044  0.00  0.00    -0.020 NA
ATOM     13  C35 ZIN AC000      -2.384  -4.094   0.377  0.00  0.00     0.148 C 
ATOM     14  H54 ZIN AC000      -3.187  -2.220  -0.248  0.00  0.00     0.161 HD
ATOM     15  O7  ZIN AC000       2.312  -2.598  -0.043  0.00  0.00    -0.263 OA
BRANCH   5  16
ATOM     16  C10 ZIN AC000       1.127  -4.816   0.301  0.00  0.00     0.356 C 
ATOM     17  O11 ZIN AC000       1.077  -6.026   0.384  0.00  0.00    -0.283 OA
ENDBRANCH   5  16
BRANCH  11  18
ATOM     18  N1  ZIN AC000      -0.005   1.367  -0.031  0.00  0.00    -0.231 N 
ATOM     19  H37 ZIN AC000       0.829   1.862  -0.044  0.00  0.00     0.174 HD
ATOM     20  H38 ZIN AC000      -0.851   1.842  -0.024  0.00  0.00     0.174 HD
ENDBRANCH  11  18
ENDBRANCH   3   4
ENDBRANCH   1   3
BRANCH   1  21
ATOM     21  C16 ZIN AC000      -0.273  -5.337  -3.948  0.00  0.00     0.028 A 
ATOM     22  C34 ZIN AC000       0.839  -5.855  -4.607  0.00  0.00     0.030 A 
ATOM     23  C33 ZIN AC000       0.863  -5.910  -5.982  0.00  0.00     0.019 A 
ATOM     24  C19 ZIN AC000      -0.227  -5.434  -6.718  0.00  0.00     0.032 A 
ATOM     25  C18 ZIN AC000      -1.339  -4.909  -6.053  0.00  0.00     0.019 A 
ATOM     26  C17 ZIN AC000      -1.359  -4.863  -4.678  0.00  0.00     0.030 A 
BRANCH  24  27
ATOM     27  C20 ZIN AC000      -0.202  -5.485  -8.192  0.00  0.00     0.252 C 
ATOM     28  O21 ZIN AC000      -1.149  -5.070  -8.830  0.00  0.00    -0.268 OA
ATOM     29  N22 ZIN AC000       0.872  -5.991  -8.830  0.00  0.00    -0.342 N 
ATOM     30  H45 ZIN AC000       1.628  -6.322  -8.321  0.00  0.00     0.163 HD
BRANCH  29  31
ATOM     31  C23 ZIN AC000       0.897  -6.042 -10.294  0.00  0.00     0.186 C 
BRANCH  31  32
ATOM     32  C25 ZIN AC000       2.348  -6.045 -10.780  0.00  0.00     0.046 C 
BRANCH  32  33
ATOM     33  C26 ZIN AC000       3.013  -4.718 -10.409  0.00  0.00     0.116 C 
BRANCH  33  34
ATOM     34  C27 ZIN AC000       4.442  -4.722 -10.888  0.00  0.00     0.172 C 
ATOM     35  O28 ZIN AC000       4.887  -5.696 -11.471  0.00  0.00    -0.648 OA
ATOM     36  O29 ZIN AC000       5.153  -3.751 -10.692  0.00  0.00    -0.648 OA
ENDBRANCH  33  34
ENDBRANCH  32  33
ENDBRANCH  31  32
BRANCH  31  37
ATOM     37  C30 ZIN AC000       0.206  -7.295 -10.765  0.00  0.00     0.196 C 
ATOM     38  O31 ZIN AC000      -0.264  -8.075  -9.953  0.00  0.00    -0.646 OA
ATOM     39  O32 ZIN AC000       0.117  -7.531 -11.958  0.00  0.00    -0.646 OA
ENDBRANCH  31  37
ENDBRANCH  29  31
ENDBRANCH  24  27
ENDBRANCH   1  21
TORSDOF 11
