REMARK  8 active torsions:
REMARK  status: ('A' for Active; 'I' for Inactive)
REMARK    1  A    between atoms: C2_2  and  N5_5 
REMARK    2  A    between atoms: N5_5  and  C8_8 
REMARK    3  A    between atoms: C8_8  and  C9_9 
REMARK    4  A    between atoms: C9_9  and  O11_10 
REMARK    5  A    between atoms: C9_9  and  C12_11 
REMARK    6  A    between atoms: C12_11  and  O13_12 
REMARK    7  A    between atoms: O13_12  and  C14_13 
REMARK    8  A    between atoms: C18_17  and  N19_18 
ROOT
ATOM      1  C12 ZIN AC000       4.253  -0.038  -2.426  0.00  0.00     0.210 C 
ENDROOT
BRANCH   1   2
ATOM      2  C9  ZIN AC000       2.784  -0.463  -2.476  0.00  0.00     0.168 C 
BRANCH   2   3
ATOM      3  C8  ZIN AC000       2.068   0.031  -1.217  0.00  0.00     0.267 C 
BRANCH   3   4
ATOM      4  N5  ZIN AC000       0.690  -0.478  -1.207  0.00  0.00    -0.065 N 
ATOM      5  H6  ZIN AC000       0.703  -1.487  -1.212  0.00  0.00     0.278 HD
ATOM      6  H7  ZIN AC000       0.202  -0.144  -2.024  0.00  0.00     0.278 HD
BRANCH   4   7
ATOM      7  C2  ZIN AC000       0.002  -0.004   0.002  0.00  0.00     0.115 C 
ATOM      8  C1  ZIN AC000      -0.019   1.526   0.010  0.00  0.00     0.045 C 
ATOM      9  C3  ZIN AC000       0.742  -0.511   1.242  0.00  0.00     0.045 C 
ATOM     10  C4  ZIN AC000      -1.433  -0.534   0.013  0.00  0.00     0.045 C 
ENDBRANCH   4   7
ENDBRANCH   3   4
ENDBRANCH   2   3
BRANCH   2  11
ATOM     11  O11 ZIN AC000       2.163   0.105  -3.631  0.00  0.00    -0.392 OA
ATOM     12  H36 ZIN AC000       2.181   1.072  -3.652  0.00  0.00     0.210 HD
ENDBRANCH   2  11
ENDBRANCH   1   2
BRANCH   1  13
ATOM     13  O13 ZIN AC000       4.948  -0.597  -3.543  0.00  0.00    -0.329 OA
BRANCH  13  14
ATOM     14  C14 ZIN AC000       6.275  -0.315  -3.649  0.00  0.00     0.215 A 
ATOM     15  C18 ZIN AC000       7.050  -0.800  -4.687  0.00  0.00     0.169 A 
ATOM     16  N17 ZIN AC000       8.310  -0.446  -4.667  0.00  0.00    -0.176 NA
ATOM     17  S16 ZIN AC000       8.514   0.519  -3.287  0.00  0.00     0.120 SA
ATOM     18  N15 ZIN AC000       6.899   0.428  -2.774  0.00  0.00    -0.165 NA
BRANCH  15  19
ATOM     19  N19 ZIN AC000       6.520  -1.610  -5.699  0.00  0.00    -0.260 NA
ATOM     20  C24 ZIN AC000       7.553  -1.975  -6.679  0.00  0.00     0.123 C 
ATOM     21  C23 ZIN AC000       6.919  -2.808  -7.796  0.00  0.00     0.182 C 
ATOM     22  O22 ZIN AC000       6.285  -3.956  -7.226  0.00  0.00    -0.389 OA
ATOM     23  C21 ZIN AC000       5.272  -3.637  -6.267  0.00  0.00     0.182 C 
ATOM     24  C20 ZIN AC000       5.889  -2.812  -5.135  0.00  0.00     0.123 C 
ENDBRANCH  15  19
ENDBRANCH  13  14
ENDBRANCH   1  13
TORSDOF 8
