REMARK  2 active torsions:
REMARK  status: ('A' for Active; 'I' for Inactive)
REMARK    1  A    between atoms: C3_3  and  O4_4 
REMARK    2  A    between atoms: C25_21  and  C26_22 
ROOT
ATOM      1  C1  ZIN AC000       0.721  -1.335  -0.024  0.00  0.00     0.015 C 
ATOM      2  C2  ZIN AC000       0.559  -0.174  -0.072  0.00  0.00    -0.078 C 
ATOM      3  C3  ZIN AC000       0.356   1.283  -0.134  0.00  0.00     0.128 C 
ATOM      4  C5  ZIN AC000      -0.129   1.698  -1.545  0.00  0.00     0.052 C 
ATOM      5  C6  ZIN AC000       0.990   2.591  -2.148  0.00  0.00     0.010 C 
ATOM      6  C7  ZIN AC000       2.237   2.145  -1.377  0.00  0.00     0.002 C 
ATOM      7  C9  ZIN AC000       3.383   3.140  -1.344  0.00  0.00    -0.005 C 
ATOM      8  C11 ZIN AC000       3.921   3.357  -2.761  0.00  0.00     0.010 C 
ATOM      9  C12 ZIN AC000       5.027   4.413  -2.722  0.00  0.00     0.035 C 
ATOM     10  C13 ZIN AC000       6.086   3.976  -1.727  0.00  0.00    -0.072 C 
ATOM     11  C14 ZIN AC000       7.359   4.017  -2.119  0.00  0.00     0.053 C 
ATOM     12  C15 ZIN AC000       8.425   3.620  -1.194  0.00  0.00     0.149 C 
ATOM     13  O16 ZIN AC000       9.520   3.278  -1.590  0.00  0.00    -0.293 OA
ATOM     14  C17 ZIN AC000       8.088   3.659   0.284  0.00  0.00     0.084 C 
ATOM     15  C18 ZIN AC000       6.764   2.919   0.470  0.00  0.00     0.017 C 
ATOM     16  C19 ZIN AC000       5.654   3.536  -0.362  0.00  0.00     0.019 C 
ATOM     17  C21 ZIN AC000       4.489   2.544  -0.461  0.00  0.00    -0.002 C 
ATOM     18  C23 ZIN AC000       3.993   2.214   0.944  0.00  0.00     0.006 C 
ATOM     19  C24 ZIN AC000       2.746   1.317   0.911  0.00  0.00     0.014 C 
ATOM     20  C25 ZIN AC000       1.682   2.010   0.067  0.00  0.00     0.006 C 
ENDROOT
BRANCH   3  21
ATOM     21  O4  ZIN AC000      -0.588   1.693   0.857  0.00  0.00    -0.377 OA
ATOM     22  H29 ZIN AC000      -1.457   1.278   0.768  0.00  0.00     0.211 HD
ENDBRANCH   3  21
BRANCH  20  23
ATOM     23  C26 ZIN AC000       1.435   3.422   0.601  0.00  0.00     0.009 C 
ATOM     24  C27 ZIN AC000       1.073   3.349   2.086  0.00  0.00     0.006 C 
ENDBRANCH  20  23
TORSDOF 2
