REMARK  5 active torsions:
REMARK  status: ('A' for Active; 'I' for Inactive)
REMARK    1  A    between atoms: N2_2  and  C4_4 
REMARK    2  A    between atoms: N2_2  and  C15_15 
REMARK    3  A    between atoms: C4_4  and  C5_5 
REMARK    4  A    between atoms: C8_8  and  C9_9 
REMARK    5  A    between atoms: C15_15  and  C16_16 
ROOT
ATOM      1  C1  ZIN AC000      -0.018   1.465   0.010  0.00  0.00     0.270 C 
ATOM      2  N2  ZIN AC000       0.002  -0.004   0.002  0.00  0.00    -0.067 N 
ATOM      3  H3  ZIN AC000       0.490  -0.338   0.820  0.00  0.00     0.280 HD
ENDROOT
BRANCH   2   4
ATOM      4  C4  ZIN AC000      -1.376  -0.512   0.012  0.00  0.00     0.273 C 
BRANCH   4   5
ATOM      5  C5  ZIN AC000      -2.043  -0.130   1.309  0.00  0.00    -0.033 A 
ATOM      6  C14 ZIN AC000      -2.729   1.066   1.406  0.00  0.00     0.009 A 
ATOM      7  C13 ZIN AC000      -3.344   1.415   2.594  0.00  0.00     0.008 A 
ATOM      8  C8  ZIN AC000      -3.266   0.572   3.687  0.00  0.00    -0.051 A 
ATOM      9  C7  ZIN AC000      -2.575  -0.622   3.591  0.00  0.00     0.008 A 
ATOM     10  C6  ZIN AC000      -1.964  -0.973   2.402  0.00  0.00     0.009 A 
BRANCH   8  11
ATOM     11  C9  ZIN AC000      -3.933   0.954   4.983  0.00  0.00    -0.024 C 
ATOM     12  C10 ZIN AC000      -2.881   1.046   6.090  0.00  0.00     0.019 C 
ATOM     13  C11 ZIN AC000      -4.622   2.311   4.821  0.00  0.00     0.019 C 
ATOM     14  C12 ZIN AC000      -4.973  -0.105   5.353  0.00  0.00     0.019 C 
ENDBRANCH   8  11
ENDBRANCH   4   5
ENDBRANCH   2   4
BRANCH   2  15
ATOM     15  C15 ZIN AC000       0.690  -0.478  -1.207  0.00  0.00     0.274 C 
BRANCH  15  16
ATOM     16  C16 ZIN AC000       2.137  -0.060  -1.158  0.00  0.00    -0.021 A 
ATOM     17  C25 ZIN AC000       2.558   1.030  -1.857  0.00  0.00     0.010 A 
ATOM     18  C24 ZIN AC000       3.891   1.435  -1.819  0.00  0.00     0.002 A 
ATOM     19  C23 ZIN AC000       4.812   0.746  -1.091  0.00  0.00     0.012 A 
ATOM     20  C22 ZIN AC000       4.416  -0.387  -0.362  0.00  0.00    -0.025 A 
ATOM     21  C17 ZIN AC000       3.059  -0.796  -0.395  0.00  0.00    -0.018 A 
ATOM     22  C21 ZIN AC000       5.338  -1.123   0.401  0.00  0.00     0.012 A 
ATOM     23  C18 ZIN AC000       2.663  -1.930   0.334  0.00  0.00     0.013 A 
ATOM     24  C19 ZIN AC000       3.584  -2.619   1.061  0.00  0.00     0.001 A 
ATOM     25  C20 ZIN AC000       4.918  -2.216   1.095  0.00  0.00     0.001 A 
ENDBRANCH  15  16
ENDBRANCH   2  15
TORSDOF 5
