REMARK  8 active torsions:
REMARK  status: ('A' for Active; 'I' for Inactive)
REMARK    1  A    between atoms: C2_2  and  C4_4 
REMARK    2  A    between atoms: C4_4  and  N5_5 
REMARK    3  A    between atoms: N8_8  and  C10_10 
REMARK    4  A    between atoms: C10_10  and  C11_11 
REMARK    5  A    between atoms: N16_16  and  C17_17 
REMARK    6  A    between atoms: C17_17  and  C18_18 
REMARK    7  A    between atoms: N23_23  and  C25_25 
REMARK    8  A    between atoms: C25_25  and  C26_26 
ROOT
ATOM      1  N5  ZIN AC000      -2.609   1.200  -0.156  0.00  0.00     0.101 N 
ATOM      2  C6  ZIN AC000      -2.615   0.282   0.991  0.00  0.00     0.300 C 
ATOM      3  C7  ZIN AC000      -1.376   0.536   1.853  0.00  0.00     0.265 C 
ATOM      4  N8  ZIN AC000      -1.790   0.807   3.236  0.00  0.00    -0.058 N 
ATOM      5  H9  ZIN AC000      -2.793   0.911   3.273  0.00  0.00     0.280 HD
ATOM      6  C14 ZIN AC000      -1.152   2.046   3.703  0.00  0.00     0.265 C 
ATOM      7  C15 ZIN AC000      -2.220   2.993   4.254  0.00  0.00     0.300 C 
ATOM      8  N16 ZIN AC000      -2.144   4.280   3.550  0.00  0.00     0.101 N 
ATOM      9  C21 ZIN AC000      -3.458   4.669   3.021  0.00  0.00     0.300 C 
ATOM     10  C22 ZIN AC000      -3.333   4.989   1.530  0.00  0.00     0.265 C 
ATOM     11  N23 ZIN AC000      -4.275   4.157   0.770  0.00  0.00    -0.058 N 
ATOM     12  H24 ZIN AC000      -4.701   3.482   1.387  0.00  0.00     0.280 HD
ATOM     13  C29 ZIN AC000      -3.554   3.455  -0.301  0.00  0.00     0.265 C 
ATOM     14  C30 ZIN AC000      -3.865   1.958  -0.229  0.00  0.00     0.300 C 
ENDROOT
BRANCH   4  15
ATOM     15  C10 ZIN AC000      -1.380  -0.309   4.098  0.00  0.00     0.347 C 
BRANCH  15  16
ATOM     16  C11 ZIN AC000      -1.910  -0.089   5.492  0.00  0.00     0.199 C 
ATOM     17  O12 ZIN AC000      -2.568   0.906   5.743  0.00  0.00    -0.647 OA
ATOM     18  O13 ZIN AC000      -1.681  -0.906   6.367  0.00  0.00    -0.647 OA
ENDBRANCH  15  16
ENDBRANCH   4  15
BRANCH   1  19
ATOM     19  C4  ZIN AC000      -1.452   2.103  -0.102  0.00  0.00     0.385 C 
BRANCH  19  20
ATOM     20  C2  ZIN AC000      -1.286   2.787  -1.435  0.00  0.00     0.202 C 
ATOM     21  O1  ZIN AC000      -2.060   2.545  -2.345  0.00  0.00    -0.647 OA
ATOM     22  O3  ZIN AC000      -0.380   3.586  -1.601  0.00  0.00    -0.647 OA
ENDBRANCH  19  20
ENDBRANCH   1  19
BRANCH   8  23
ATOM     23  C17 ZIN AC000      -1.138   4.236   2.481  0.00  0.00     0.385 C 
BRANCH  23  24
ATOM     24  C18 ZIN AC000       0.239   4.164   3.089  0.00  0.00     0.202 C 
ATOM     25  O19 ZIN AC000       0.370   4.150   4.301  0.00  0.00    -0.647 OA
ATOM     26  O20 ZIN AC000       1.222   4.119   2.369  0.00  0.00    -0.647 OA
ENDBRANCH  23  24
ENDBRANCH   8  23
BRANCH  11  27
ATOM     27  C25 ZIN AC000      -5.317   5.008   0.181  0.00  0.00     0.347 C 
BRANCH  27  28
ATOM     28  C26 ZIN AC000      -6.350   4.144  -0.494  0.00  0.00     0.199 C 
ATOM     29  O27 ZIN AC000      -6.229   2.931  -0.487  0.00  0.00    -0.647 OA
ATOM     30  O28 ZIN AC000      -7.306   4.658  -1.049  0.00  0.00    -0.647 OA
ENDBRANCH  27  28
ENDBRANCH  11  27
TORSDOF 8
