REMARK  1 active torsions:
REMARK  status: ('A' for Active; 'I' for Inactive)
REMARK    1  A    between atoms: O2_2  and  C3_3 
ROOT
ATOM      1  C3  ZIN AC000       0.542  -0.604   1.185  0.00  0.00     0.068 A 
ATOM      2  C4  ZIN AC000       1.125   0.131   2.208  0.00  0.00     0.037 A 
ATOM      3  C5  ZIN AC000       1.771  -0.518   3.237  0.00  0.00     0.010 A 
ATOM      4  C6  ZIN AC000       1.845  -1.906   3.264  0.00  0.00    -0.049 A 
ATOM      5  C7  ZIN AC000       2.527  -2.548   4.442  0.00  0.00     0.072 C 
ATOM      6  C8  ZIN AC000       2.758  -4.034   4.236  0.00  0.00     0.197 C 
ATOM      7  C10 ZIN AC000       1.513  -4.680   3.628  0.00  0.00     0.030 C 
ATOM      8  C12 ZIN AC000       0.284  -4.322   4.466  0.00  0.00     0.008 C 
ATOM      9  C13 ZIN AC000      -0.966  -4.921   3.818  0.00  0.00     0.001 C 
ATOM     10  C14 ZIN AC000      -1.136  -4.350   2.408  0.00  0.00     0.001 C 
ATOM     11  C15 ZIN AC000       0.092  -4.702   1.564  0.00  0.00     0.015 C 
ATOM     12  C16 ZIN AC000       1.356  -4.140   2.204  0.00  0.00    -0.005 C 
ATOM     13  C17 ZIN AC000       2.590  -4.524   1.375  0.00  0.00     0.042 C 
ATOM     14  C18 ZIN AC000       3.810  -3.861   2.026  0.00  0.00     0.236 C 
ATOM     15  N19 ZIN AC000       3.935  -4.314   3.426  0.00  0.00    -0.070 N 
ATOM     16  H20 ZIN AC000       4.077  -5.313   3.437  0.00  0.00     0.279 HD
ATOM     17  C21 ZIN AC000       5.101  -3.661   4.036  0.00  0.00     0.270 C 
ATOM     18  C22 ZIN AC000       1.281  -2.635   2.240  0.00  0.00    -0.040 A 
ATOM     19  C23 ZIN AC000       0.620  -1.987   1.208  0.00  0.00     0.045 A 
ENDROOT
BRANCH   1  20
ATOM     20  O2  ZIN AC000      -0.104   0.028   0.171  0.00  0.00    -0.356 OA
ATOM     21  C1  ZIN AC000      -0.143   1.456   0.216  0.00  0.00     0.210 C 
ENDBRANCH   1  20
TORSDOF 1
