REMARK  9 active torsions:
REMARK  status: ('A' for Active; 'I' for Inactive)
REMARK    1  A    between atoms: C2_2  and  C3_3 
REMARK    2  A    between atoms: C3_3  and  C4_4 
REMARK    3  A    between atoms: C4_4  and  O6_6 
REMARK    4  A    between atoms: O6_6  and  C7_7 
REMARK    5  A    between atoms: C7_7  and  C8_8 
REMARK    6  A    between atoms: C8_8  and  C10_10 
REMARK    7  A    between atoms: C10_10  and  O11_11 
REMARK    8  A    between atoms: O11_11  and  C12_12 
REMARK    9  A    between atoms: C35_32  and  O37_33 
ROOT
ATOM      1  C7  ZIN AC000       0.630  -3.561  -3.149  0.00  0.00     0.140 C 
ATOM      2  C15 ZIN AC000       1.075  -3.603  -1.666  0.00  0.00     0.048 C 
ATOM      3  C16 ZIN AC000       2.387  -4.433  -1.625  0.00  0.00     0.009 C 
ATOM      4  C17 ZIN AC000       2.930  -4.287  -3.051  0.00  0.00     0.005 C 
ATOM      5  C19 ZIN AC000       3.901  -5.363  -3.502  0.00  0.00     0.037 C 
ATOM      6  C21 ZIN AC000       5.157  -5.329  -2.629  0.00  0.00     0.050 C 
ATOM      7  C22 ZIN AC000       6.118  -6.441  -3.063  0.00  0.00     0.201 C 
ATOM      8  F24 ZIN AC000       7.314  -6.339  -2.344  0.00  0.00    -0.245 F 
ATOM      9  C25 ZIN AC000       6.393  -6.272  -4.545  0.00  0.00    -0.027 A 
ATOM     10  C26 ZIN AC000       7.651  -6.238  -4.965  0.00  0.00     0.061 A 
ATOM     11  C27 ZIN AC000       7.958  -6.055  -6.392  0.00  0.00     0.172 A 
ATOM     12  O28 ZIN AC000       9.109  -6.063  -6.786  0.00  0.00    -0.289 OA
ATOM     13  C29 ZIN AC000       6.841  -5.864  -7.332  0.00  0.00     0.052 A 
ATOM     14  C30 ZIN AC000       5.593  -5.908  -6.892  0.00  0.00    -0.006 A 
ATOM     15  C31 ZIN AC000       5.219  -6.155  -5.471  0.00  0.00     0.039 A 
ATOM     16  C32 ZIN AC000       4.445  -7.474  -5.413  0.00  0.00     0.028 C 
ATOM     17  C33 ZIN AC000       4.259  -5.074  -4.968  0.00  0.00     0.147 C 
ATOM     18  F34 ZIN AC000       4.895  -3.829  -5.031  0.00  0.00    -0.238 F 
ATOM     19  C35 ZIN AC000       3.028  -5.033  -5.868  0.00  0.00     0.160 C 
ATOM     20  C38 ZIN AC000       1.970  -4.051  -5.340  0.00  0.00     0.048 C 
ATOM     21  C39 ZIN AC000       1.636  -4.431  -3.897  0.00  0.00     0.002 C 
ATOM     22  C40 ZIN AC000       1.216  -5.900  -3.831  0.00  0.00     0.019 C 
ENDROOT
BRANCH   1  23
ATOM     23  O6  ZIN AC000       0.673  -2.199  -3.649  0.00  0.00    -0.301 OA
BRANCH  23  24
ATOM     24  C4  ZIN AC000      -0.075  -1.289  -3.006  0.00  0.00     0.260 C 
ATOM     25  O5  ZIN AC000      -0.813  -1.636  -2.114  0.00  0.00    -0.265 OA
BRANCH  24  26
ATOM     26  C3  ZIN AC000       0.004   0.164  -3.396  0.00  0.00     0.111 C 
BRANCH  26  27
ATOM     27  C2  ZIN AC000      -0.942   0.981  -2.514  0.00  0.00     0.005 C 
ATOM     28  C1  ZIN AC000      -0.862   2.457  -2.910  0.00  0.00     0.005 C 
ENDBRANCH  26  27
ENDBRANCH  24  26
ENDBRANCH  23  24
ENDBRANCH   1  23
BRANCH   1  29
ATOM     29  C8  ZIN AC000      -0.759  -4.127  -3.296  0.00  0.00     0.186 C 
ATOM     30  O9  ZIN AC000      -1.164  -4.945  -2.506  0.00  0.00    -0.292 OA
BRANCH  29  31
ATOM     31  C10 ZIN AC000      -1.642  -3.671  -4.429  0.00  0.00     0.260 C 
BRANCH  31  32
ATOM     32  O11 ZIN AC000      -2.871  -4.444  -4.425  0.00  0.00    -0.314 OA
BRANCH  32  33
ATOM     33  C12 ZIN AC000      -3.773  -4.159  -5.378  0.00  0.00     0.255 C 
ATOM     34  C13 ZIN AC000      -5.072  -4.921  -5.438  0.00  0.00     0.126 C 
ATOM     35  O14 ZIN AC000      -3.542  -3.293  -6.189  0.00  0.00    -0.266 OA
ENDBRANCH  32  33
ENDBRANCH  31  32
ENDBRANCH  29  31
ENDBRANCH   1  29
BRANCH  19  36
ATOM     36  O37 ZIN AC000       2.456  -6.341  -5.934  0.00  0.00    -0.392 OA
ATOM     37  H65 ZIN AC000       1.666  -6.397  -6.490  0.00  0.00     0.210 HD
ENDBRANCH  19  36
TORSDOF 9
