REMARK  7 active torsions:
REMARK  status: ('A' for Active; 'I' for Inactive)
REMARK    1  A    between atoms: C2_2  and  C3_3 
REMARK    2  A    between atoms: C3_3  and  N4_4 
REMARK    3  A    between atoms: N4_4  and  C6_6 
REMARK    4  A    between atoms: N4_4  and  C9_9 
REMARK    5  A    between atoms: C6_6  and  C7_7 
REMARK    6  A    between atoms: C9_9  and  C10_10 
REMARK    7  A    between atoms: C10_10  and  C11_11 
ROOT
ATOM      1  C11 ZIN AC000      -4.203  -4.722  -0.198  0.00  0.00    -0.048 A 
ATOM      2  C12 ZIN AC000      -4.984  -4.980   0.915  0.00  0.00     0.008 A 
ATOM      3  C13 ZIN AC000      -6.262  -5.483   0.757  0.00  0.00     0.003 A 
ATOM      4  C14 ZIN AC000      -6.764  -5.729  -0.505  0.00  0.00     0.030 A 
ATOM      5  C15 ZIN AC000      -5.983  -5.472  -1.630  0.00  0.00     0.042 A 
ATOM      6  C16 ZIN AC000      -4.703  -4.962  -1.458  0.00  0.00    -0.016 A 
ATOM      7  C17 ZIN AC000      -4.121  -4.795  -2.843  0.00  0.00     0.144 A 
ATOM      8  C18 ZIN AC000      -5.225  -5.269  -3.765  0.00  0.00     0.226 A 
ATOM      9  O19 ZIN AC000      -5.185  -5.308  -4.976  0.00  0.00    -0.273 OA
ATOM     10  N20 ZIN AC000      -6.258  -5.636  -2.988  0.00  0.00    -0.326 N 
ATOM     11  H44 ZIN AC000      -7.098  -5.980  -3.332  0.00  0.00     0.169 HD
ENDROOT
BRANCH   1  12
ATOM     12  C10 ZIN AC000      -2.809  -4.174  -0.031  0.00  0.00     0.067 C 
BRANCH  12  13
ATOM     13  C9  ZIN AC000      -2.844  -2.648  -0.147  0.00  0.00     0.239 C 
BRANCH  13  14
ATOM     14  N4  ZIN AC000      -1.506  -2.106   0.126  0.00  0.00    -0.071 N 
ATOM     15  H5  ZIN AC000      -1.186  -2.437   1.024  0.00  0.00     0.279 HD
BRANCH  14  16
ATOM     16  C3  ZIN AC000      -0.575  -2.549  -0.919  0.00  0.00     0.234 C 
BRANCH  16  17
ATOM     17  C2  ZIN AC000       0.842  -2.089  -0.569  0.00  0.00     0.023 C 
ATOM     18  C1  ZIN AC000       1.812  -2.551  -1.658  0.00  0.00     0.007 C 
ENDBRANCH  16  17
ENDBRANCH  14  16
BRANCH  14  19
ATOM     19  C6  ZIN AC000      -1.566  -0.638   0.138  0.00  0.00     0.234 C 
BRANCH  19  20
ATOM     20  C7  ZIN AC000      -2.408  -0.172   1.328  0.00  0.00     0.023 C 
ATOM     21  C8  ZIN AC000      -2.519   1.354   1.307  0.00  0.00     0.007 C 
ENDBRANCH  19  20
ENDBRANCH  14  19
ENDBRANCH  13  14
ENDBRANCH  12  13
ENDBRANCH   1  12
TORSDOF 7
