REMARK  14 active torsions:
REMARK  status: ('A' for Active; 'I' for Inactive)
REMARK    1  A    between atoms: C2_2  and  C3_3 
REMARK    2  A    between atoms: C3_3  and  C6_5 
REMARK    3  A    between atoms: C6_5  and  O8_7 
REMARK    4  A    between atoms: O8_7  and  C9_8 
REMARK    5  A    between atoms: C12_10  and  O14_11 
REMARK    6  A    between atoms: C22_18  and  C24_19 
REMARK    7  A    between atoms: C24_19  and  C25_20 
REMARK    8  A    between atoms: C25_20  and  C26_21 
REMARK    9  A    between atoms: C26_21  and  O28_22 
REMARK   10  A    between atoms: C26_21  and  C29_23 
REMARK   11  A    between atoms: C29_23  and  C30_24 
REMARK   12  A    between atoms: C30_24  and  O32_25 
REMARK   13  A    between atoms: C30_24  and  C33_26 
REMARK   14  A    between atoms: C33_26  and  C34_27 
ROOT
ATOM      1  C9  ZIN AC000      -2.451  -4.410  -1.072  0.00  0.00     0.143 C 
ATOM      2  C11 ZIN AC000      -1.990  -5.194   0.155  0.00  0.00     0.069 C 
ATOM      3  C12 ZIN AC000      -2.116  -6.693  -0.153  0.00  0.00     0.144 C 
ATOM      4  C15 ZIN AC000      -3.569  -6.985  -0.424  0.00  0.00     0.012 C 
ATOM      5  C16 ZIN AC000      -4.352  -6.082  -0.983  0.00  0.00    -0.053 C 
ATOM      6  C17 ZIN AC000      -5.798  -6.370  -1.127  0.00  0.00     0.004 C 
ATOM      7  C18 ZIN AC000      -6.643  -5.383  -1.373  0.00  0.00    -0.022 C 
ATOM      8  C19 ZIN AC000      -6.236  -3.951  -1.538  0.00  0.00     0.009 C 
ATOM      9  C21 ZIN AC000      -6.194  -3.613  -3.030  0.00  0.00     0.014 C 
ATOM     10  C22 ZIN AC000      -4.859  -3.681  -0.929  0.00  0.00     0.004 C 
ATOM     11  C37 ZIN AC000      -3.878  -4.737  -1.444  0.00  0.00     0.053 C 
ENDROOT
BRANCH  10  12
ATOM     12  C24 ZIN AC000      -4.381  -2.287  -1.339  0.00  0.00     0.009 C 
BRANCH  12  13
ATOM     13  C25 ZIN AC000      -5.554  -1.307  -1.280  0.00  0.00     0.032 C 
BRANCH  13  14
ATOM     14  C26 ZIN AC000      -5.076   0.087  -1.689  0.00  0.00     0.120 C 
BRANCH  14  15
ATOM     15  O28 ZIN AC000      -4.669   0.068  -3.059  0.00  0.00    -0.395 OA
ATOM     16  H60 ZIN AC000      -5.370  -0.185  -3.674  0.00  0.00     0.210 HD
ENDBRANCH  14  15
BRANCH  14  17
ATOM     17  C29 ZIN AC000      -6.217   1.091  -1.511  0.00  0.00     0.064 C 
BRANCH  17  18
ATOM     18  C30 ZIN AC000      -5.704   2.503  -1.801  0.00  0.00     0.130 C 
BRANCH  18  19
ATOM     19  O32 ZIN AC000      -5.327   2.600  -3.176  0.00  0.00    -0.395 OA
ATOM     20  H63 ZIN AC000      -6.050   2.426  -3.795  0.00  0.00     0.210 HD
ENDBRANCH  18  19
BRANCH  18  21
ATOM     21  C33 ZIN AC000      -6.810   3.518  -1.502  0.00  0.00     0.144 C 
BRANCH  21  22
ATOM     22  C34 ZIN AC000      -6.268   4.914  -1.670  0.00  0.00     0.175 C 
ATOM     23  O35 ZIN AC000      -5.106   5.082  -1.997  0.00  0.00    -0.648 OA
ATOM     24  O36 ZIN AC000      -6.992   5.876  -1.477  0.00  0.00    -0.648 OA
ENDBRANCH  21  22
ENDBRANCH  18  21
ENDBRANCH  17  18
ENDBRANCH  14  17
ENDBRANCH  13  14
ENDBRANCH  12  13
ENDBRANCH  10  12
BRANCH   1  25
ATOM     25  O8  ZIN AC000      -2.349  -2.990  -0.791  0.00  0.00    -0.315 OA
BRANCH  25  26
ATOM     26  C6  ZIN AC000      -1.178  -2.396  -1.070  0.00  0.00     0.263 C 
ATOM     27  O7  ZIN AC000      -0.268  -3.042  -1.533  0.00  0.00    -0.265 OA
BRANCH  26  28
ATOM     28  C3  ZIN AC000      -0.998  -0.923  -0.804  0.00  0.00     0.081 C 
ATOM     29  C5  ZIN AC000      -1.209  -0.644   0.685  0.00  0.00     0.020 C 
BRANCH  28  30
ATOM     30  C2  ZIN AC000       0.416  -0.502  -1.207  0.00  0.00     0.010 C 
ATOM     31  C1  ZIN AC000       0.560   1.014  -1.056  0.00  0.00     0.006 C 
ENDBRANCH  28  30
ENDBRANCH  26  28
ENDBRANCH  25  26
ENDBRANCH   1  25
BRANCH   3  32
ATOM     32  O14 ZIN AC000      -1.333  -7.017  -1.304  0.00  0.00    -0.392 OA
ATOM     33  H49 ZIN AC000      -1.369  -7.951  -1.553  0.00  0.00     0.210 HD
ENDBRANCH   3  32
TORSDOF 14
