REMARK  8 active torsions:
REMARK  status: ('A' for Active; 'I' for Inactive)
REMARK       I    between atoms: N2_2  and  C3_3 
REMARK    1  A    between atoms: C3_3  and  C5_5 
REMARK    2  A    between atoms: N7_7  and  C8_8 
REMARK    3  A    between atoms: C10_10  and  N11_11 
REMARK    4  A    between atoms: N15_15  and  C16_16 
REMARK    5  A    between atoms: C19_18  and  C21_19 
REMARK    6  A    between atoms: C21_19  and  O22_20 
REMARK    7  A    between atoms: C23_21  and  O25_22 
REMARK    8  A    between atoms: C26_23  and  O28_24 
ROOT
ATOM      1  C8  <0> d           1.411  -5.379   2.252  0.00  0.00     0.753 A 
ATOM      2  N9  <0> d           2.068  -5.230   3.394  0.00  0.00    -0.041 NA
ATOM      3  C10 <0> d           2.489  -6.282   4.086  0.00  0.00     0.173 A 
ATOM      4  C12 <0> d           2.223  -7.567   3.583  0.00  0.00     0.150 A 
ATOM      5  N13 <0> d           2.491  -8.828   4.002  0.00  0.00    -0.236 NA
ATOM      6  C14 <0> d           2.013  -9.681   3.144  0.00  0.00     0.214 A 
ATOM      7  N15 <0> d           1.406  -9.019   2.118  0.00  0.00    -0.293 N 
ATOM      8  C29 <0> d           1.524  -7.675   2.369  0.00  0.00     0.185 A 
ATOM      9  N30 <0> d           1.136  -6.568   1.745  0.00  0.00    -0.040 NA
ENDROOT
BRANCH   7  10
ATOM     10  C16 <0> d           0.749  -9.630   0.960  0.00  0.00     0.262 C 
ATOM     11  C26 <0> d           1.742  -9.768  -0.222  0.00  0.00     0.198 C 
ATOM     12  C23 <0> d           1.123 -10.937  -1.029  0.00  0.00     0.182 C 
ATOM     13  C19 <0> d           0.222 -11.665  -0.012  0.00  0.00     0.179 C 
ATOM     14  O18 <0> d           0.374 -10.994   1.250  0.00  0.00    -0.353 OA
BRANCH  11  15
ATOM     15  O28 <0> d           1.782  -8.573  -1.004  0.00  0.00    -0.388 OA
ATOM     16  H45 <0> d           2.321  -8.644  -1.803  0.00  0.00     0.210 HD
ENDBRANCH  11  15
BRANCH  12  17
ATOM     17  O25 <0> d           0.345 -10.436  -2.117  0.00  0.00    -0.390 OA
ATOM     18  H44 <0> d          -0.113 -11.122  -2.623  0.00  0.00     0.210 HD
ENDBRANCH  12  17
BRANCH  13  19
ATOM     19  C21 <0> d           0.656 -13.126   0.120  0.00  0.00     0.198 C 
BRANCH  19  20
ATOM     20  O22 <0> d          -0.247 -13.815   0.987  0.00  0.00    -0.398 OA
ATOM     21  H43 <0> d          -0.033 -14.749   1.117  0.00  0.00     0.209 HD
ENDBRANCH  19  20
ENDBRANCH  13  19
ENDBRANCH   7  10
BRANCH   3  22
ATOM     22  N11 <0> d           3.173  -6.117   5.277  0.00  0.00    -0.381 N 
ATOM     23  H38 <0> d           3.351  -5.225   5.615  0.00  0.00     0.157 HD
ATOM     24  H39 <0> d           3.476  -6.893   5.775  0.00  0.00     0.157 HD
ENDBRANCH   3  22
BRANCH   1  25
ATOM     25  N7  <0> d           0.991  -4.240   1.564  0.00  0.00    -0.070 N 
ATOM     26  C6  <0> d           1.195  -2.966   1.950  0.00  0.00     0.156 A 
ATOM     27  C5  <0> d           0.624  -2.150   0.995  0.00  0.00     0.069 A 
ATOM     28  C32 <0> d           0.057  -2.991   0.011  0.00  0.00     0.158 A 
ATOM     29  N31 <0> d           0.286  -4.228   0.355  0.00  0.00    -0.164 NA
BRANCH  27  30
ATOM     30  C3  <0> d           0.604  -0.675   1.004  0.00  0.00     0.254 C 
ATOM     31  N2  <0> d           0.002  -0.004   0.002  0.00  0.00    -0.361 N 
ATOM     32  C1  <0> d          -0.018   1.461   0.010  0.00  0.00     0.149 C 
ATOM     33  H36 <0> d          -0.418  -0.491  -0.724  0.00  0.00     0.162 HD
ATOM     34  O4  <0> d           1.131  -0.065   1.914  0.00  0.00    -0.268 OA
ENDBRANCH  27  30
ENDBRANCH   1  25
TORSDOF 8
