REMARK  4 active torsions:
REMARK  status: ('A' for Active; 'I' for Inactive)
REMARK    1  A    between atoms: N4_4  and  C5_5 
REMARK    2  A    between atoms: C8_7  and  N10_8 
REMARK    3  A    between atoms: C13_11  and  C15_12 
REMARK    4  A    between atoms: C15_12  and  O16_13 
ROOT
ATOM      1  N10 ZIN AC000      -4.454  -5.159  -1.507  0.00  0.00    -0.107 NA
ATOM      2  N11 ZIN AC000      -4.496  -5.327  -2.618  0.00  0.00    -0.167 NA
ATOM      3  N12 ZIN AC000      -4.539  -5.495  -3.728  0.00  0.00     0.068 N 
ENDROOT
BRANCH   1   4
ATOM      4  C8  ZIN AC000      -3.160  -4.976  -0.844  0.00  0.00     0.180 C 
ATOM      5  C7  ZIN AC000      -2.499  -3.656  -1.301  0.00  0.00     0.087 C 
ATOM      6  C5  ZIN AC000      -2.369  -2.831  -0.002  0.00  0.00     0.234 C 
ATOM      7  O17 ZIN AC000      -2.362  -3.810   1.060  0.00  0.00    -0.356 OA
ATOM      8  C13 ZIN AC000      -3.351  -4.791   0.678  0.00  0.00     0.175 C 
BRANCH   6   9
ATOM      9  N4  ZIN AC000      -1.116  -2.072  -0.004  0.00  0.00    -0.282 N 
ATOM     10  C3  ZIN AC000      -1.153  -0.704   0.004  0.00  0.00     0.110 A 
ATOM     11  C2  ZIN AC000       0.002  -0.004   0.002  0.00  0.00     0.022 A 
ATOM     12  C1  ZIN AC000      -0.018   1.503   0.010  0.00  0.00     0.056 C 
ATOM     13  C21 ZIN AC000       1.232  -0.705  -0.013  0.00  0.00     0.256 A 
ATOM     14  N20 ZIN AC000       1.226  -2.053  -0.016  0.00  0.00    -0.275 N 
ATOM     15  O22 ZIN AC000       2.287  -0.095  -0.016  0.00  0.00    -0.267 OA
ATOM     16  C18 ZIN AC000       0.060  -2.726  -0.013  0.00  0.00     0.331 A 
ATOM     17  H32 ZIN AC000       2.064  -2.540  -0.023  0.00  0.00     0.173 HD
ATOM     18  O19 ZIN AC000       0.069  -3.942  -0.020  0.00  0.00    -0.246 OA
ENDBRANCH   6   9
BRANCH   8  19
ATOM     19  C15 ZIN AC000      -3.106  -6.112   1.410  0.00  0.00     0.198 C 
BRANCH  19  20
ATOM     20  O16 ZIN AC000      -3.400  -5.950   2.799  0.00  0.00    -0.398 OA
ATOM     21  H31 ZIN AC000      -3.266  -6.750   3.325  0.00  0.00     0.209 HD
ENDBRANCH  19  20
ENDBRANCH   8  19
ENDBRANCH   1   4
TORSDOF 4
