REMARK  14 active torsions:
REMARK  status: ('A' for Active; 'I' for Inactive)
REMARK    1  A    between atoms: C2_2  and  C4_4 
REMARK    2  A    between atoms: C4_4  and  N5_5 
REMARK    3  A    between atoms: N5_5  and  C6_6 
REMARK    4  A    between atoms: N5_5  and  S34_29 
REMARK    5  A    between atoms: C6_6  and  C7_7 
REMARK    6  A    between atoms: C7_7  and  O9_8 
REMARK    7  A    between atoms: C7_7  and  C10_9 
REMARK    8  A    between atoms: C10_9  and  C12_10 
REMARK    9  A    between atoms: C10_9  and  N19_17 
REMARK   10  A    between atoms: C12_10  and  C13_11 
REMARK       I    between atoms: N19_17  and  C20_18 
REMARK   11  A    between atoms: C20_18  and  O22_20 
REMARK   12  A    between atoms: O22_20  and  C23_21 
REMARK   13  A    between atoms: S34_29  and  C37_32 
REMARK   14  A    between atoms: C40_35  and  N41_36 
ROOT
ATOM      1  C7  ZIN AC000      -2.566  -1.873   2.791  0.00  0.00     0.160 C 
ENDROOT
BRANCH   1   2
ATOM      2  C6  ZIN AC000      -1.271  -2.082   2.002  0.00  0.00     0.169 C 
BRANCH   2   3
ATOM      3  N5  ZIN AC000      -1.454  -1.603   0.629  0.00  0.00    -0.304 N 
BRANCH   3   4
ATOM      4  C4  ZIN AC000      -1.275  -0.183   0.319  0.00  0.00     0.139 C 
BRANCH   4   5
ATOM      5  C2  ZIN AC000       0.202   0.094   0.030  0.00  0.00    -0.004 C 
ATOM      6  C1  ZIN AC000       0.368   1.540  -0.440  0.00  0.00     0.011 C 
ATOM      7  C3  ZIN AC000       1.020  -0.125   1.304  0.00  0.00     0.011 C 
ENDBRANCH   4   5
ENDBRANCH   3   4
BRANCH   3   8
ATOM      8  S34 ZIN AC000      -1.862  -2.668  -0.571  0.00  0.00     0.260 S 
ATOM      9  O35 ZIN AC000      -2.487  -3.773   0.068  0.00  0.00    -0.200 OA
ATOM     10  O36 ZIN AC000      -2.490  -1.902  -1.590  0.00  0.00    -0.200 OA
BRANCH   8  11
ATOM     11  C37 ZIN AC000      -0.360  -3.277  -1.262  0.00  0.00     0.079 A 
ATOM     12  C43 ZIN AC000       0.230  -4.413  -0.737  0.00  0.00     0.027 A 
ATOM     13  C42 ZIN AC000       1.405  -4.896  -1.279  0.00  0.00     0.030 A 
ATOM     14  C40 ZIN AC000       2.000  -4.234  -2.345  0.00  0.00     0.025 A 
ATOM     15  C39 ZIN AC000       1.407  -3.091  -2.866  0.00  0.00     0.030 A 
ATOM     16  C38 ZIN AC000       0.230  -2.616  -2.323  0.00  0.00     0.027 A 
BRANCH  14  17
ATOM     17  N41 ZIN AC000       3.191  -4.717  -2.892  0.00  0.00    -0.399 N 
ATOM     18  H72 ZIN AC000       3.606  -4.253  -3.636  0.00  0.00     0.156 HD
ATOM     19  H73 ZIN AC000       3.603  -5.515  -2.527  0.00  0.00     0.156 HD
ENDBRANCH  14  17
ENDBRANCH   8  11
ENDBRANCH   3   8
ENDBRANCH   2   3
ENDBRANCH   1   2
BRANCH   1  20
ATOM     20  O9  ZIN AC000      -3.598  -2.693   2.238  0.00  0.00    -0.392 OA
ATOM     21  H55 ZIN AC000      -3.401  -3.640   2.258  0.00  0.00     0.210 HD
ENDBRANCH   1  20
BRANCH   1  22
ATOM     22  C10 ZIN AC000      -2.338  -2.256   4.254  0.00  0.00     0.121 C 
BRANCH  22  23
ATOM     23  C12 ZIN AC000      -2.043  -3.755   4.349  0.00  0.00     0.066 C 
BRANCH  23  24
ATOM     24  C13 ZIN AC000      -1.699  -4.109   5.773  0.00  0.00    -0.056 A 
ATOM     25  C18 ZIN AC000      -2.697  -4.485   6.652  0.00  0.00     0.007 A 
ATOM     26  C17 ZIN AC000      -2.380  -4.815   7.957  0.00  0.00     0.001 A 
ATOM     27  C16 ZIN AC000      -1.067  -4.760   8.384  0.00  0.00     0.000 A 
ATOM     28  C15 ZIN AC000      -0.069  -4.379   7.506  0.00  0.00     0.001 A 
ATOM     29  C14 ZIN AC000      -0.385  -4.053   6.201  0.00  0.00     0.007 A 
ENDBRANCH  23  24
ENDBRANCH  22  23
BRANCH  22  30
ATOM     30  N19 ZIN AC000      -3.539  -1.945   5.033  0.00  0.00    -0.329 N 
ATOM     31  C20 ZIN AC000      -3.442  -1.710   6.357  0.00  0.00     0.361 C 
ATOM     32  O21 ZIN AC000      -2.359  -1.757   6.904  0.00  0.00    -0.238 OA
ATOM     33  H63 ZIN AC000      -4.405  -1.907   4.596  0.00  0.00     0.165 HD
BRANCH  31  34
ATOM     34  O22 ZIN AC000      -4.546  -1.424   7.072  0.00  0.00    -0.296 OA
BRANCH  34  35
ATOM     35  C23 ZIN AC000      -4.367  -1.183   8.493  0.00  0.00     0.166 C 
ATOM     36  C32 ZIN AC000      -5.644  -1.557   9.271  0.00  0.00     0.075 C 
ATOM     37  C27 ZIN AC000      -6.171  -0.198   9.819  0.00  0.00     0.266 C 
ATOM     38  C31 ZIN AC000      -6.785  -1.936   8.257  0.00  0.00     0.038 C 
ATOM     39  O26 ZIN AC000      -5.531   0.808   9.003  0.00  0.00    -0.358 OA
ATOM     40  O29 ZIN AC000      -7.583  -0.140   9.576  0.00  0.00    -0.361 OA
ATOM     41  C25 ZIN AC000      -4.190   0.328   8.768  0.00  0.00     0.204 C 
ATOM     42  C30 ZIN AC000      -8.030  -1.373   8.990  0.00  0.00     0.171 C 
ENDBRANCH  34  35
ENDBRANCH  31  34
ENDBRANCH  22  30
ENDBRANCH   1  22
TORSDOF 14
