REMARK  6 active torsions:
REMARK  status: ('A' for Active; 'I' for Inactive)
REMARK    1  A    between atoms: N1_1  and  C2_2 
REMARK    2  A    between atoms: N6_6  and  C7_7 
REMARK    3  A    between atoms: C10_9  and  C12_10 
REMARK    4  A    between atoms: C12_10  and  O13_11 
REMARK    5  A    between atoms: C14_12  and  O16_13 
REMARK    6  A    between atoms: C17_14  and  O19_15 
ROOT
ATOM      1  C7  ZIN AC000       0.085  -4.133  -0.021  0.00  0.00     0.265 C 
ATOM      2  O9  ZIN AC000       0.943  -4.629   1.028  0.00  0.00    -0.353 OA
ATOM      3  C10 ZIN AC000       1.327  -5.965   0.660  0.00  0.00     0.179 C 
ATOM      4  C14 ZIN AC000       1.263  -6.052  -0.877  0.00  0.00     0.182 C 
ATOM      5  C17 ZIN AC000       0.753  -4.657  -1.318  0.00  0.00     0.198 C 
ENDROOT
BRANCH   1   6
ATOM      6  N6  ZIN AC000       0.054  -2.668  -0.013  0.00  0.00    -0.261 N 
ATOM      7  C4  ZIN AC000      -1.126  -2.014  -0.004  0.00  0.00     0.367 A 
ATOM      8  N3  ZIN AC000      -1.139  -0.678   0.004  0.00  0.00    -0.004 NA
ATOM      9  O5  ZIN AC000      -2.173  -2.638  -0.002  0.00  0.00    -0.244 OA
ATOM     10  C2  ZIN AC000       0.002  -0.004   0.002  0.00  0.00     0.725 A 
ATOM     11  N21 ZIN AC000       1.174  -0.654  -0.013  0.00  0.00    -0.058 NA
ATOM     12  C20 ZIN AC000       1.207  -1.963  -0.014  0.00  0.00     0.236 A 
BRANCH  10  13
ATOM     13  N1  ZIN AC000      -0.017   1.368   0.010  0.00  0.00    -0.231 N 
ATOM     14  H22 ZIN AC000       0.817   1.865   0.004  0.00  0.00     0.174 HD
ATOM     15  H23 ZIN AC000      -0.863   1.842   0.016  0.00  0.00     0.174 HD
ENDBRANCH  10  13
ENDBRANCH   1   6
BRANCH   5  16
ATOM     16  O19 ZIN AC000      -0.198  -4.772  -2.378  0.00  0.00    -0.388 OA
ATOM     17  H28 ZIN AC000       0.155  -5.179  -3.181  0.00  0.00     0.210 HD
ENDBRANCH   5  16
BRANCH   4  18
ATOM     18  O16 ZIN AC000       0.344  -7.070  -1.282  0.00  0.00    -0.390 OA
ATOM     19  H27 ZIN AC000       0.584  -7.958  -0.983  0.00  0.00     0.210 HD
ENDBRANCH   4  18
BRANCH   3  20
ATOM     20  C12 ZIN AC000       2.752  -6.248   1.141  0.00  0.00     0.198 C 
BRANCH  20  21
ATOM     21  O13 ZIN AC000       2.777  -6.264   2.570  0.00  0.00    -0.398 OA
ATOM     22  H26 ZIN AC000       3.651  -6.438   2.946  0.00  0.00     0.209 HD
ENDBRANCH  20  21
ENDBRANCH   3  20
TORSDOF 6
