REMARK  5 active torsions:
REMARK  status: ('A' for Active; 'I' for Inactive)
REMARK       I    between atoms: N1_1  and  C2_2 
REMARK       I    between atoms: C2_2  and  N4_4 
REMARK    1  A    between atoms: N4_4  and  C5_5 
REMARK    2  A    between atoms: C5_5  and  C7_6 
REMARK    3  A    between atoms: C5_5  and  C12_11 
REMARK    4  A    between atoms: C7_6  and  C8_7 
REMARK    5  A    between atoms: C8_7  and  C9_8 
ROOT
ATOM      1  C5  RES d   1      -1.136  -2.159   0.001  0.00  0.00     0.187 C 
ENDROOT
BRANCH   1   2
ATOM      2  N4  RES d   1      -1.156  -0.694   0.009  0.00  0.00    -0.329 N 
ATOM      3  C2  RES d   1       0.002  -0.004   0.002  0.00  0.00     0.314 C 
ATOM      4  N1  RES d   1      -0.016   1.344   0.009  0.00  0.00    -0.352 N 
ATOM      5  O3  RES d   1       1.063  -0.598  -0.011  0.00  0.00    -0.248 OA
ATOM      6  H15 RES d   1       0.817   1.840   0.004  0.00  0.00     0.160 HD
ATOM      7  H16 RES d   1      -0.863   1.817   0.016  0.00  0.00     0.160 HD
ATOM      8  H17 RES d   1      -2.002  -0.220   0.020  0.00  0.00     0.165 HD
ENDBRANCH   1   2
BRANCH   1   9
ATOM      9  C7  RES d   1      -2.430  -2.690   0.621  0.00  0.00     0.046 C 
BRANCH   9  10
ATOM     10  C8  RES d   1      -2.489  -2.294   2.097  0.00  0.00     0.116 C 
BRANCH  10  11
ATOM     11  C9  RES d   1      -3.764  -2.817   2.707  0.00  0.00     0.172 C 
ATOM     12  O10 RES d   1      -4.553  -3.448   2.024  0.00  0.00    -0.648 OA
ATOM     13  O11 RES d   1      -4.007  -2.609   3.884  0.00  0.00    -0.648 OA
ENDBRANCH  10  11
ENDBRANCH   9  10
ENDBRANCH   1   9
BRANCH   1  14
ATOM     14  C12 RES d   1      -1.019  -2.652  -1.418  0.00  0.00     0.196 C 
ATOM     15  O13 RES d   1      -0.958  -1.853  -2.337  0.00  0.00    -0.646 OA
ATOM     16  O14 RES d   1      -0.985  -3.849  -1.647  0.00  0.00    -0.646 OA
ENDBRANCH   1  14
TORSDOF 5
