REMARK  4 active torsions:
REMARK  status: ('A' for Active; 'I' for Inactive)
REMARK    1  A    between atoms: C2_2  and  C6_6 
REMARK    2  A    between atoms: C8_8  and  C9_9 
REMARK    3  A    between atoms: C15_15  and  C16_16 
REMARK    4  A    between atoms: C16_16  and  N17_17 
ROOT
ATOM      1  C1  <0> d          -0.019   1.526   0.010  0.00  0.00     0.036 C 
ATOM      2  C2  <0> d           0.002  -0.004   0.002  0.00  0.00     0.069 C 
ATOM      3  C3  <0> d           0.742  -0.511   1.242  0.00  0.00     0.036 C 
ATOM      4  C4  <0> d          -1.379  -0.514   0.013  0.00  0.00     0.073 C 
ATOM      5  N5  <0> d          -2.445  -0.907   0.021  0.00  0.00    -0.196 NA
ENDROOT
BRANCH   2   6
ATOM      6  C6  <0> d           0.707  -0.490  -1.238  0.00  0.00    -0.035 A 
ATOM      7  C22 <0> d           1.212   0.420  -2.148  0.00  0.00     0.017 A 
ATOM      8  C15 <0> d           1.863  -0.026  -3.283  0.00  0.00    -0.037 A 
ATOM      9  C14 <0> d           2.001  -1.382  -3.513  0.00  0.00     0.017 A 
ATOM     10  C8  <0> d           1.492  -2.292  -2.605  0.00  0.00    -0.035 A 
ATOM     11  C7  <0> d           0.845  -1.846  -1.468  0.00  0.00     0.017 A 
BRANCH   8  12
ATOM     12  C16 <0> d           2.417   0.967  -4.272  0.00  0.00     0.190 C 
BRANCH  12  13
ATOM     13  N17 <0> d           1.396   1.282  -5.274  0.00  0.00    -0.258 N 
ATOM     14  N21 <0> d           0.700   0.368  -6.082  0.00  0.00    -0.164 NA
ATOM     15  C20 <0> d          -0.115   1.067  -6.827  0.00  0.00     0.256 A 
ATOM     16  N19 <0> d           0.036   2.359  -6.538  0.00  0.00    -0.234 NA
ATOM     17  C18 <0> d           0.942   2.502  -5.605  0.00  0.00     0.230 A 
ENDBRANCH  12  13
ENDBRANCH   8  12
BRANCH  10  18
ATOM     18  C9  <0> d           1.643  -3.770  -2.856  0.00  0.00     0.069 C 
ATOM     19  C10 <0> d           2.390  -3.991  -4.173  0.00  0.00     0.036 C 
ATOM     20  C11 <0> d           2.432  -4.404  -1.709  0.00  0.00     0.036 C 
ATOM     21  C12 <0> d           0.311  -4.392  -2.938  0.00  0.00     0.073 C 
ATOM     22  N13 <0> d          -0.717  -4.872  -3.001  0.00  0.00    -0.196 NA
ENDBRANCH  10  18
ENDBRANCH   2   6
TORSDOF 4
