REMARK  7 active torsions:
REMARK  status: ('A' for Active; 'I' for Inactive)
REMARK    1  A    between atoms: C5_5  and  C6_6 
REMARK       I    between atoms: C6_6  and  N8_8 
REMARK    2  A    between atoms: N8_8  and  C9_9 
REMARK    3  A    between atoms: C12_12  and  C13_13 
REMARK    4  A    between atoms: C13_13  and  N14_14 
REMARK    5  A    between atoms: C21_21  and  C22_22 
REMARK    6  A    between atoms: C28_28  and  C29_29 
REMARK    7  A    between atoms: C30_30  and  C31_31 
ROOT
ATOM      1  C6  ZIN AC000       0.605  -4.292  -0.111  0.00  0.00     0.256 C 
ATOM      2  O7  ZIN AC000       1.060  -4.942   0.810  0.00  0.00    -0.267 OA
ATOM      3  N8  ZIN AC000       0.106  -4.918  -1.195  0.00  0.00    -0.323 N 
ATOM      4  H45 ZIN AC000      -0.320  -4.404  -1.899  0.00  0.00     0.169 HD
ENDROOT
BRANCH   1   5
ATOM      5  C5  ZIN AC000       0.598  -2.815  -0.041  0.00  0.00     0.033 A 
ATOM      6  C4  ZIN AC000       0.075  -2.067  -1.099  0.00  0.00     0.017 A 
ATOM      7  C3  ZIN AC000       0.068  -0.687  -1.037  0.00  0.00     0.009 A 
ATOM      8  C2  ZIN AC000       0.576  -0.037   0.069  0.00  0.00    -0.043 A 
ATOM      9  C1  ZIN AC000       0.563   1.469   0.127  0.00  0.00     0.049 C 
ATOM     10  C28 ZIN AC000       1.109  -0.772   1.133  0.00  0.00     0.025 A 
ATOM     11  C27 ZIN AC000       1.114  -2.167   1.079  0.00  0.00     0.038 A 
BRANCH  10  12
ATOM     12  C29 ZIN AC000       1.637  -0.096   2.280  0.00  0.00    -0.059 C 
ATOM     13  C30 ZIN AC000       2.071   0.458   3.220  0.00  0.00    -0.040 C 
BRANCH  13  14
ATOM     14  C31 ZIN AC000       2.599   1.133   4.367  0.00  0.00     0.131 A 
ATOM     15  N39 ZIN AC000       2.662   2.492   4.563  0.00  0.00    -0.206 N 
ATOM     16  C34 ZIN AC000       3.236   2.694   5.792  0.00  0.00     0.151 A 
ATOM     17  N38 ZIN AC000       2.256   3.584   3.791  0.00  0.00    -0.177 NA
ATOM     18  N33 ZIN AC000       3.522   1.511   6.324  0.00  0.00    -0.238 NA
ATOM     19  C35 ZIN AC000       3.419   4.010   6.252  0.00  0.00     0.054 A 
ATOM     20  C32 ZIN AC000       3.152   0.546   5.492  0.00  0.00     0.160 A 
ATOM     21  C36 ZIN AC000       3.017   5.050   5.469  0.00  0.00     0.025 A 
ATOM     22  C37 ZIN AC000       2.429   4.806   4.223  0.00  0.00     0.139 A 
ENDBRANCH  13  14
ENDBRANCH  10  12
ENDBRANCH   1   5
BRANCH   3  23
ATOM     23  C9  ZIN AC000       0.202  -6.309  -1.306  0.00  0.00     0.035 A 
ATOM     24  C26 ZIN AC000       0.403  -6.896  -2.548  0.00  0.00     0.046 A 
ATOM     25  C21 ZIN AC000       0.503  -8.269  -2.653  0.00  0.00     0.058 A 
ATOM     26  C12 ZIN AC000       0.393  -9.060  -1.524  0.00  0.00    -0.015 A 
ATOM     27  C11 ZIN AC000       0.188  -8.479  -0.287  0.00  0.00     0.012 A 
ATOM     28  C10 ZIN AC000       0.092  -7.106  -0.174  0.00  0.00     0.030 A 
BRANCH  25  29
ATOM     29  C22 ZIN AC000       0.727  -8.907  -4.000  0.00  0.00     0.418 C 
ATOM     30  F23 ZIN AC000       0.913  -7.909  -4.963  0.00  0.00    -0.166 F 
ATOM     31  F24 ZIN AC000       1.862  -9.722  -3.948  0.00  0.00    -0.166 F 
ATOM     32  F25 ZIN AC000      -0.388  -9.681  -4.341  0.00  0.00    -0.166 F 
ENDBRANCH  25  29
BRANCH  26  33
ATOM     33  C13 ZIN AC000       0.496 -10.559  -1.644  0.00  0.00     0.311 C 
BRANCH  33  34
ATOM     34  N14 ZIN AC000      -0.744 -11.091  -2.224  0.00  0.00     0.096 N 
ATOM     35  C20 ZIN AC000      -0.716 -12.559  -2.271  0.00  0.00     0.303 C 
ATOM     36  C19 ZIN AC000      -1.988 -13.069  -2.953  0.00  0.00     0.302 C 
ATOM     37  N17 ZIN AC000      -3.163 -12.591  -2.212  0.00  0.00     0.087 N 
ATOM     38  C16 ZIN AC000      -3.191 -11.123  -2.165  0.00  0.00     0.302 C 
ATOM     39  C18 ZIN AC000      -4.404 -13.123  -2.792  0.00  0.00     0.310 C 
ATOM     40  C15 ZIN AC000      -1.919 -10.613  -1.483  0.00  0.00     0.303 C 
ENDBRANCH  33  34
ENDBRANCH  26  33
ENDBRANCH   3  23
TORSDOF 7
