REMARK  2 active torsions:
REMARK  status: ('A' for Active; 'I' for Inactive)
REMARK    1  A    between atoms: N2_2  and  C5_5 
REMARK    2  A    between atoms: C5_5  and  C6_6 
ROOT
ATOM      1  C5  ZIN AC000       0.814  -0.489   1.126  0.00  0.00     0.213 C 
ATOM      2  C13 ZIN AC000       0.893  -1.984   0.799  0.00  0.00     0.052 C 
ATOM      3  C14 ZIN AC000      -0.481  -2.623   1.006  0.00  0.00     0.004 C 
ATOM      4  C15 ZIN AC000      -0.882  -2.524   2.479  0.00  0.00     0.007 C 
ATOM      5  C16 ZIN AC000      -1.028  -1.050   2.869  0.00  0.00     0.081 C 
ATOM      6  C17 ZIN AC000       0.257  -0.331   2.524  0.00  0.00     0.167 C 
ATOM      7  O18 ZIN AC000       0.825   0.350   3.343  0.00  0.00    -0.295 OA
ENDROOT
BRANCH   1   8
ATOM      8  N2  ZIN AC000      -0.072   0.180   0.164  0.00  0.00    -0.059 N 
ATOM      9  C1  ZIN AC000      -0.286   1.572   0.582  0.00  0.00     0.269 C 
ATOM     10  H3  ZIN AC000      -0.958  -0.301   0.131  0.00  0.00     0.278 HD
ATOM     11  H4  ZIN AC000       0.353   0.166  -0.751  0.00  0.00     0.278 HD
ENDBRANCH   1   8
BRANCH   1  12
ATOM     12  C6  ZIN AC000       2.190   0.122   1.057  0.00  0.00     0.007 A 
ATOM     13  C11 ZIN AC000       3.166  -0.269   1.957  0.00  0.00     0.043 A 
ATOM     14  C10 ZIN AC000       4.431   0.288   1.889  0.00  0.00     0.024 A 
ATOM     15 Cl12 ZIN AC000       2.808  -1.468   3.160  0.00  0.00    -0.084 Cl
ATOM     16  C9  ZIN AC000       4.715   1.242   0.931  0.00  0.00     0.002 A 
ATOM     17  C8  ZIN AC000       3.738   1.637   0.036  0.00  0.00     0.001 A 
ATOM     18  C7  ZIN AC000       2.475   1.076   0.100  0.00  0.00     0.012 A 
ENDBRANCH   1  12
TORSDOF 2
