REMARK  10 active torsions:
REMARK  status: ('A' for Active; 'I' for Inactive)
REMARK    1  A    between atoms: O2_2  and  C3_3 
REMARK    2  A    between atoms: C6_6  and  C7_7 
REMARK    3  A    between atoms: C7_7  and  C8_8 
REMARK    4  A    between atoms: C8_8  and  N11_10 
REMARK    5  A    between atoms: N11_10  and  C14_13 
REMARK    6  A    between atoms: C14_13  and  C15_14 
REMARK    7  A    between atoms: C15_14  and  O17_15 
REMARK    8  A    between atoms: C15_14  and  C18_16 
REMARK    9  A    between atoms: C23_21  and  N24_22 
REMARK   10  A    between atoms: N24_22  and  C25_23 
ROOT
ATOM      1  C14 ZIN AC000      -6.036  -1.820  -3.461  0.00  0.00     0.269 C 
ENDROOT
BRANCH   1   2
ATOM      2  N11 ZIN AC000      -5.713  -1.603  -2.044  0.00  0.00    -0.068 N 
ATOM      3  H12 ZIN AC000      -6.484  -1.135  -1.591  0.00  0.00     0.277 HD
ATOM      4  H13 ZIN AC000      -4.884  -1.033  -1.972  0.00  0.00     0.277 HD
BRANCH   2   5
ATOM      5  C8  ZIN AC000      -5.475  -2.898  -1.392  0.00  0.00     0.186 C 
ATOM      6  C10 ZIN AC000      -6.770  -3.714  -1.392  0.00  0.00     0.040 C 
BRANCH   5   7
ATOM      7  C7  ZIN AC000      -5.018  -2.667   0.049  0.00  0.00     0.071 C 
BRANCH   7   8
ATOM      8  C6  ZIN AC000      -3.682  -1.970   0.047  0.00  0.00    -0.056 A 
ATOM      9  C5  ZIN AC000      -3.623  -0.589   0.051  0.00  0.00     0.010 A 
ATOM     10  C4  ZIN AC000      -2.399   0.052   0.049  0.00  0.00     0.037 A 
ATOM     11  C3  ZIN AC000      -1.228  -0.692   0.043  0.00  0.00     0.068 A 
ATOM     12  C29 ZIN AC000      -1.290  -2.078   0.033  0.00  0.00     0.037 A 
ATOM     13  C28 ZIN AC000      -2.516  -2.714   0.040  0.00  0.00     0.010 A 
BRANCH  11  14
ATOM     14  O2  ZIN AC000      -0.023  -0.064   0.040  0.00  0.00    -0.356 OA
ATOM     15  C1  ZIN AC000      -0.036   1.365   0.051  0.00  0.00     0.210 C 
ENDBRANCH  11  14
ENDBRANCH   7   8
ENDBRANCH   5   7
ENDBRANCH   2   5
ENDBRANCH   1   2
BRANCH   1  16
ATOM     16  C15 ZIN AC000      -6.283  -0.471  -4.140  0.00  0.00     0.176 C 
BRANCH  16  17
ATOM     17  O17 ZIN AC000      -5.075   0.291  -4.140  0.00  0.00    -0.389 OA
ATOM     18  H42 ZIN AC000      -4.342  -0.134  -4.607  0.00  0.00     0.210 HD
ENDBRANCH  16  17
BRANCH  16  19
ATOM     19  C18 ZIN AC000      -6.734  -0.699  -5.560  0.00  0.00    -0.026 A 
ATOM     20  C27 ZIN AC000      -8.077  -0.622  -5.878  0.00  0.00     0.042 A 
ATOM     21  C23 ZIN AC000      -8.493  -0.826  -7.185  0.00  0.00     0.071 A 
ATOM     22  C21 ZIN AC000      -7.554  -1.119  -8.172  0.00  0.00     0.134 A 
ATOM     23  C20 ZIN AC000      -6.211  -1.199  -7.845  0.00  0.00     0.043 A 
ATOM     24  O22 ZIN AC000      -7.957  -1.325  -9.455  0.00  0.00    -0.190 OA
ATOM     25  C19 ZIN AC000      -5.804  -0.989  -6.540  0.00  0.00     0.013 A 
BRANCH  21  26
ATOM     26  N24 ZIN AC000      -9.853  -0.743  -7.511  0.00  0.00    -0.332 N 
ATOM     27  H45 ZIN AC000     -10.196  -1.215  -8.286  0.00  0.00     0.168 HD
BRANCH  26  28
ATOM     28  C25 ZIN AC000     -10.685  -0.008  -6.747  0.00  0.00     0.353 C 
ATOM     29  O26 ZIN AC000     -10.242   0.660  -5.837  0.00  0.00    -0.283 OA
ENDBRANCH  26  28
ENDBRANCH  21  26
ENDBRANCH  16  19
ENDBRANCH   1  16
TORSDOF 10
