REMARK  6 active torsions:
REMARK  status: ('A' for Active; 'I' for Inactive)
REMARK    1  A    between atoms: O2_2  and  C3_3 
REMARK    2  A    between atoms: C3_3  and  C5_5 
REMARK    3  A    between atoms: C11_11  and  C12_12 
REMARK    4  A    between atoms: C12_12  and  O14_14 
REMARK    5  A    between atoms: O14_14  and  C15_15 
REMARK    6  A    between atoms: C18_18  and  C20_19 
ROOT
ATOM      1  C5  <0> d           0.717  -2.014  -1.094  0.00  0.00     0.052 C 
ATOM      2  C6  <0> d           1.172  -2.597  -2.217  0.00  0.00     0.018 C 
ATOM      3  C7  <0> d           1.670  -1.739  -3.351  0.00  0.00     0.069 C 
ATOM      4  N8  <0> d           1.187  -3.959  -2.343  0.00  0.00    -0.362 N 
ATOM      5  C9  <0> d           1.090  -4.756  -1.235  0.00  0.00     0.018 C 
ATOM      6  C10 <0> d           1.502  -6.203  -1.321  0.00  0.00     0.069 C 
ATOM      7  C11 <0> d           0.631  -4.263  -0.071  0.00  0.00     0.052 C 
ATOM      8  C18 <0> d           0.208  -2.830   0.060  0.00  0.00     0.103 C 
ATOM      9  H35 <0> d           1.267  -4.362  -3.222  0.00  0.00     0.165 HD
ENDROOT
BRANCH   8  10
ATOM     10  C20 <0> d          -1.297  -2.757   0.078  0.00  0.00    -0.011 A 
ATOM     11  C28 <0> d          -1.969  -2.211   1.190  0.00  0.00     0.124 A 
ATOM     12  C24 <0> d          -3.452  -2.152   1.167  0.00  0.00     0.118 A 
ATOM     13  N27 <0> d          -1.675  -1.672   2.347  0.00  0.00    -0.102 NA
ATOM     14  C23 <0> d          -4.130  -2.654   0.039  0.00  0.00     0.036 A 
ATOM     15  N25 <0> d          -3.737  -1.597   2.319  0.00  0.00    -0.103 NA
ATOM     16  C22 <0> d          -3.417  -3.170  -0.992  0.00  0.00     0.003 A 
ATOM     17  C21 <0> d          -2.017  -3.220  -0.973  0.00  0.00     0.011 A 
ATOM     18  O26 <0> d          -2.705  -1.362   2.913  0.00  0.00    -0.106 OA
ENDBRANCH   8  10
BRANCH   1  19
ATOM     19  C3  <0> d           0.724  -0.604  -0.995  0.00  0.00     0.291 C 
ATOM     20  O4  <0> d           1.617  -0.041  -0.389  0.00  0.00    -0.260 OA
BRANCH  19  21
ATOM     21  O2  <0> d          -0.259   0.118  -1.572  0.00  0.00    -0.323 OA
ATOM     22  C1  <0> d          -0.189   1.539  -1.432  0.00  0.00     0.213 C 
ENDBRANCH  19  21
ENDBRANCH   1  19
BRANCH   7  23
ATOM     23  C12 <0> d           0.552  -5.114   1.056  0.00  0.00     0.292 C 
ATOM     24  O13 <0> d           0.896  -6.277   0.966  0.00  0.00    -0.259 OA
BRANCH  23  25
ATOM     25  O14 <0> d           0.093  -4.635   2.231  0.00  0.00    -0.313 OA
BRANCH  25  26
ATOM     26  C15 <0> d           0.040  -5.549   3.328  0.00  0.00     0.124 C 
ATOM     27  C16 <0> d           0.240  -4.786   4.639  0.00  0.00     0.040 C 
ATOM     28  C17 <0> d          -1.323  -6.245   3.346  0.00  0.00     0.040 C 
ENDBRANCH  25  26
ENDBRANCH  23  25
ENDBRANCH   7  23
TORSDOF 6
