REMARK  12 active torsions:
REMARK  status: ('A' for Active; 'I' for Inactive)
REMARK    1  A    between atoms: C2_2  and  C3_3 
REMARK    2  A    between atoms: C15_15  and  O16_16 
REMARK    3  A    between atoms: C18_18  and  C19_19 
REMARK    4  A    between atoms: C19_19  and  C20_20 
REMARK    5  A    between atoms: C20_20  and  O22_22 
REMARK    6  A    between atoms: C31_30  and  O32_31 
REMARK    7  A    between atoms: C31_30  and  C33_32 
REMARK    8  A    between atoms: C52_50  and  O53_51 
REMARK    9  A    between atoms: C52_50  and  C54_52 
REMARK   10  A    between atoms: C54_52  and  O56_54 
REMARK   11  A    between atoms: C58_56  and  O60_57 
REMARK   12  A    between atoms: O60_57  and  C61_58 
ROOT
ATOM      1  C3  ZIN AC000       1.479  -0.579   1.065  0.00  0.00     0.037 C 
ATOM      2  C4  ZIN AC000       1.136   0.110   2.351  0.00  0.00    -0.015 C 
ATOM      3  C5  ZIN AC000       1.035  -0.527   3.479  0.00  0.00    -0.003 C 
ATOM      4  C6  ZIN AC000       1.278  -2.004   3.570  0.00  0.00     0.262 C 
ATOM      5  N7  ZIN AC000       0.903  -2.675   2.322  0.00  0.00    -0.061 N 
ATOM      6  H8  ZIN AC000      -0.100  -2.690   2.218  0.00  0.00     0.280 HD
ATOM      7  C9  ZIN AC000       1.440  -4.064   2.387  0.00  0.00     0.237 C 
ATOM      8  C10 ZIN AC000       2.892  -3.932   1.869  0.00  0.00     0.046 C 
ATOM      9  C11 ZIN AC000       2.775  -2.821   0.787  0.00  0.00     0.040 C 
ATOM     10  C12 ZIN AC000       2.663  -3.488  -0.556  0.00  0.00    -0.024 A 
ATOM     11  C13 ZIN AC000       3.667  -2.975  -1.382  0.00  0.00     0.020 A 
ATOM     12  C14 ZIN AC000       3.809  -3.437  -2.693  0.00  0.00     0.061 A 
ATOM     13  C15 ZIN AC000       2.909  -4.404  -3.127  0.00  0.00     0.077 A 
ATOM     14  C18 ZIN AC000       1.911  -4.895  -2.301  0.00  0.00     0.000 A 
ATOM     15  C47 ZIN AC000       1.768  -4.446  -0.994  0.00  0.00     0.021 A 
ATOM     16  N48 ZIN AC000       4.404  -1.999  -0.730  0.00  0.00    -0.278 NA
ATOM     17  C49 ZIN AC000       5.843  -2.181  -0.966  0.00  0.00     0.117 C 
ATOM     18  C50 ZIN AC000       4.091  -2.055   0.722  0.00  0.00     0.125 C 
ATOM     19  C52 ZIN AC000       3.962  -0.618   1.217  0.00  0.00     0.190 C 
ATOM     20  C58 ZIN AC000       2.763   0.027   0.494  0.00  0.00     0.192 C 
ATOM     21  C64 ZIN AC000       1.546  -2.057   1.174  0.00  0.00     0.218 C 
ENDROOT
BRANCH  14  22
ATOM     22  C19 ZIN AC000       0.951  -5.949  -2.836  0.00  0.00     0.121 C 
ATOM     23  C39 ZIN AC000       0.355  -5.455  -4.138  0.00  0.00     0.040 A 
ATOM     24  C38 ZIN AC000      -0.139  -6.101  -5.214  0.00  0.00    -0.020 A 
ATOM     25  N40 ZIN AC000       0.239  -4.087  -4.359  0.00  0.00    -0.357 N 
ATOM     26  C37 ZIN AC000      -0.326  -7.580  -5.501  0.00  0.00     0.069 C 
ATOM     27  C46 ZIN AC000      -0.504  -5.085  -6.201  0.00  0.00    -0.001 A 
ATOM     28  C36 ZIN AC000      -1.867  -7.901  -5.494  0.00  0.00     0.239 C 
ATOM     29  N28 ZIN AC000      -2.376  -7.035  -4.425  0.00  0.00    -0.068 N 
ATOM     30  C27 ZIN AC000      -1.593  -7.485  -3.226  0.00  0.00     0.239 C 
ATOM     31  H29 ZIN AC000      -2.173  -6.069  -4.649  0.00  0.00     0.280 HD
ATOM     32  C30 ZIN AC000      -3.744  -7.117  -3.953  0.00  0.00     0.272 C 
ATOM     33  C25 ZIN AC000      -1.471  -6.065  -2.583  0.00  0.00     0.016 C 
ATOM     34  C24 ZIN AC000      -0.182  -6.159  -1.771  0.00  0.00     0.037 C 
ATOM     35  C35 ZIN AC000      -2.791  -5.948  -1.834  0.00  0.00     0.045 C 
ATOM     36  C31 ZIN AC000      -3.969  -6.125  -2.802  0.00  0.00     0.082 C 
ATOM     37  C41 ZIN AC000      -0.238  -3.834  -5.605  0.00  0.00     0.043 A 
ATOM     38  C45 ZIN AC000      -1.018  -5.185  -7.497  0.00  0.00     0.014 A 
ATOM     39  C42 ZIN AC000      -0.472  -2.650  -6.304  0.00  0.00     0.030 A 
ATOM     40  C43 ZIN AC000      -0.979  -2.773  -7.587  0.00  0.00     0.002 A 
ATOM     41  C44 ZIN AC000      -1.244  -4.004  -8.162  0.00  0.00     0.001 A 
ATOM     42 4H10 ZIN AC000       0.442  -3.392  -3.715  0.00  0.00     0.166 HD
BRANCH  36  43
ATOM     43  O32 ZIN AC000      -5.098  -6.587  -2.042  0.00  0.00    -0.388 OA
ATOM     44  H92 ZIN AC000      -5.918  -6.647  -2.553  0.00  0.00     0.210 HD
ENDBRANCH  36  43
BRANCH  36  45
ATOM     45  C33 ZIN AC000      -4.337  -4.760  -3.393  0.00  0.00     0.035 C 
ATOM     46  C34 ZIN AC000      -5.613  -4.891  -4.226  0.00  0.00     0.008 C 
ENDBRANCH  36  45
BRANCH  22  47
ATOM     47  C20 ZIN AC000       1.753  -7.211  -3.030  0.00  0.00     0.278 C 
ATOM     48  O21 ZIN AC000       1.451  -8.216  -2.431  0.00  0.00    -0.264 OA
BRANCH  47  49
ATOM     49  O22 ZIN AC000       2.802  -7.218  -3.867  0.00  0.00    -0.325 OA
ATOM     50  C23 ZIN AC000       3.527  -8.468  -4.005  0.00  0.00     0.213 C 
ENDBRANCH  47  49
ENDBRANCH  22  47
ENDBRANCH  14  22
BRANCH  13  51
ATOM     51  O16 ZIN AC000       3.012  -4.881  -4.395  0.00  0.00    -0.355 OA
ATOM     52  C17 ZIN AC000       4.057  -4.344  -5.207  0.00  0.00     0.210 C 
ENDBRANCH  13  51
BRANCH  19  53
ATOM     53  O53 ZIN AC000       3.729  -0.615   2.627  0.00  0.00    -0.376 OA
ATOM     54 3H11 ZIN AC000       3.637   0.269   3.008  0.00  0.00     0.211 HD
ENDBRANCH  19  53
BRANCH  19  55
ATOM     55  C54 ZIN AC000       5.229   0.139   0.912  0.00  0.00     0.297 C 
ATOM     56  O55 ZIN AC000       5.880   0.616   1.811  0.00  0.00    -0.262 OA
BRANCH  55  57
ATOM     57  O56 ZIN AC000       5.636   0.282  -0.359  0.00  0.00    -0.324 OA
ATOM     58  C57 ZIN AC000       6.865   1.023  -0.579  0.00  0.00     0.213 C 
ENDBRANCH  55  57
ENDBRANCH  19  55
BRANCH   1  59
ATOM     59  C2  ZIN AC000       0.359  -0.254   0.075  0.00  0.00     0.014 C 
ATOM     60  C1  ZIN AC000       0.227   1.264  -0.066  0.00  0.00     0.006 C 
ENDBRANCH   1  59
BRANCH  20  61
ATOM     61  O60 ZIN AC000       2.771   1.462   0.713  0.00  0.00    -0.311 OA
BRANCH  61  62
ATOM     62  C61 ZIN AC000       3.444   2.210  -0.177  0.00  0.00     0.255 C 
ATOM     63  C62 ZIN AC000       3.497   3.707  -0.015  0.00  0.00     0.126 C 
ATOM     64  O63 ZIN AC000       4.006   1.682  -1.107  0.00  0.00    -0.266 OA
ENDBRANCH  61  62
ENDBRANCH  20  61
TORSDOF 12
