REMARK  11 active torsions:
REMARK  status: ('A' for Active; 'I' for Inactive)
REMARK    1  A    between atoms: C2_2  and  C3_3 
REMARK    2  A    between atoms: C3_3  and  N6_5 
REMARK    3  A    between atoms: N9_8  and  C10_9 
REMARK    4  A    between atoms: C13_12  and  N14_13 
REMARK    5  A    between atoms: N17_16  and  C18_17 
REMARK    6  A    between atoms: C21_20  and  O22_21 
REMARK    7  A    between atoms: O22_21  and  C23_22 
REMARK    8  A    between atoms: C23_22  and  C24_23 
REMARK    9  A    between atoms: C28_26  and  C29_27 
REMARK   10  A    between atoms: C28_26  and  C35_33 
REMARK   11  A    between atoms: C29_27  and  N30_28 
ROOT
ATOM      1  C18 ZIN AC000      -0.744   5.545 -13.296  0.00  0.00     0.010 A 
ATOM      2  C19 ZIN AC000       0.367   6.291 -13.666  0.00  0.00     0.026 A 
ATOM      3  C20 ZIN AC000       0.276   7.197 -14.703  0.00  0.00     0.038 A 
ATOM      4  C21 ZIN AC000      -0.926   7.363 -15.376  0.00  0.00     0.069 A 
ATOM      5  C44 ZIN AC000      -2.036   6.618 -15.008  0.00  0.00     0.038 A 
ATOM      6  C45 ZIN AC000      -1.945   5.707 -13.974  0.00  0.00     0.026 A 
ENDROOT
BRANCH   1   7
ATOM      7  N17 ZIN AC000      -0.652   4.625 -12.245  0.00  0.00    -0.281 NA
ATOM      8  C16 ZIN AC000       0.701   4.615 -11.672  0.00  0.00     0.110 C 
ATOM      9  C15 ZIN AC000       0.739   3.658 -10.478  0.00  0.00     0.110 C 
ATOM     10  N14 ZIN AC000       0.346   2.312 -10.919  0.00  0.00    -0.281 NA
ATOM     11  C47 ZIN AC000      -1.007   2.323 -11.493  0.00  0.00     0.110 C 
ATOM     12  C46 ZIN AC000      -1.044   3.280 -12.687  0.00  0.00     0.110 C 
BRANCH  10  13
ATOM     13  C13 ZIN AC000       0.438   1.393  -9.869  0.00  0.00     0.010 A 
ATOM     14  C12 ZIN AC000       1.640   1.231  -9.191  0.00  0.00     0.026 A 
ATOM     15  C11 ZIN AC000       1.730   0.324  -8.155  0.00  0.00     0.032 A 
ATOM     16  C10 ZIN AC000       0.621  -0.427  -7.790  0.00  0.00     0.045 A 
ATOM     17  C49 ZIN AC000      -0.579  -0.268  -8.470  0.00  0.00     0.032 A 
ATOM     18  C48 ZIN AC000      -0.672   0.643  -9.504  0.00  0.00     0.026 A 
BRANCH  16  19
ATOM     19  N9  ZIN AC000       0.713  -1.349  -6.736  0.00  0.00    -0.256 N 
ATOM     20  C8  ZIN AC000      -0.303  -2.155  -6.280  0.00  0.00     0.242 A 
ATOM     21  N7  ZIN AC000       0.142  -2.874  -5.301  0.00  0.00    -0.163 NA
ATOM     22  N6  ZIN AC000       1.489  -2.545  -5.095  0.00  0.00    -0.214 N 
ATOM     23  C50 ZIN AC000       1.812  -1.594  -5.995  0.00  0.00     0.351 A 
ATOM     24  O51 ZIN AC000       2.900  -1.059  -6.120  0.00  0.00    -0.244 OA
BRANCH  22  25
ATOM     25  C3  ZIN AC000       2.379  -3.123  -4.084  0.00  0.00     0.111 C 
ATOM     26  C5  ZIN AC000       2.498  -4.631  -4.312  0.00  0.00     0.034 C 
BRANCH  25  27
ATOM     27  C2  ZIN AC000       1.806  -2.861  -2.690  0.00  0.00     0.022 C 
ATOM     28  C1  ZIN AC000       1.803  -1.356  -2.414  0.00  0.00     0.007 C 
ENDBRANCH  25  27
ENDBRANCH  22  25
ENDBRANCH  16  19
ENDBRANCH  10  13
ENDBRANCH   1   7
BRANCH   4  29
ATOM     29  O22 ZIN AC000      -1.015   8.257 -16.398  0.00  0.00    -0.349 OA
BRANCH  29  30
ATOM     30  C23 ZIN AC000      -2.283   8.376 -17.046  0.00  0.00     0.209 C 
BRANCH  30  31
ATOM     31  C24 ZIN AC000      -2.190   9.421 -18.160  0.00  0.00     0.173 C 
ATOM     32  O43 ZIN AC000      -2.021  10.742 -17.607  0.00  0.00    -0.340 OA
ATOM     33  C28 ZIN AC000      -2.831  11.635 -18.388  0.00  0.00     0.213 C 
ATOM     34  O27 ZIN AC000      -3.479  10.883 -19.428  0.00  0.00    -0.347 OA
ATOM     35  C26 ZIN AC000      -3.533   9.526 -18.925  0.00  0.00     0.206 C 
BRANCH  33  36
ATOM     36  C29 ZIN AC000      -3.885  12.291 -17.495  0.00  0.00     0.226 C 
BRANCH  36  37
ATOM     37  N30 ZIN AC000      -3.223  12.998 -16.395  0.00  0.00    -0.257 N 
ATOM     38  N34 ZIN AC000      -2.296  12.461 -15.487  0.00  0.00    -0.165 NA
ATOM     39  C33 ZIN AC000      -1.956  13.429 -14.678  0.00  0.00     0.256 A 
ATOM     40  N32 ZIN AC000      -2.620  14.532 -15.020  0.00  0.00    -0.234 NA
ATOM     41  C31 ZIN AC000      -3.385  14.287 -16.052  0.00  0.00     0.230 A 
ENDBRANCH  36  37
ENDBRANCH  33  36
BRANCH  33  42
ATOM     42  C35 ZIN AC000      -1.955  12.696 -19.002  0.00  0.00     0.027 A 
ATOM     43  C41 ZIN AC000      -0.855  12.333 -19.759  0.00  0.00     0.047 A 
ATOM     44  C40 ZIN AC000      -0.055  13.308 -20.327  0.00  0.00     0.048 A 
ATOM     45 Cl42 ZIN AC000      -0.488  10.655 -20.007  0.00  0.00    -0.084 Cl
ATOM     46  C38 ZIN AC000      -0.348  14.645 -20.128  0.00  0.00     0.035 A 
ATOM     47  C37 ZIN AC000      -1.444  15.007 -19.366  0.00  0.00     0.024 A 
ATOM     48 Cl39 ZIN AC000       0.660  15.869 -20.834  0.00  0.00    -0.084 Cl
ATOM     49  C36 ZIN AC000      -2.247  14.033 -18.803  0.00  0.00     0.016 A 
ENDBRANCH  33  42
ENDBRANCH  30  31
ENDBRANCH  29  30
ENDBRANCH   4  29
TORSDOF 11
