REMARK  6 active torsions:
REMARK  status: ('A' for Active; 'I' for Inactive)
REMARK    1  A    between atoms: C5_5  and  C6_6 
REMARK    2  A    between atoms: C6_6  and  O7_7 
REMARK    3  A    between atoms: O7_7  and  C8_8 
REMARK    4  A    between atoms: C8_8  and  C10_9 
REMARK    5  A    between atoms: C8_8  and  C17_16 
REMARK    6  A    between atoms: C10_9  and  N11_10 
ROOT
ATOM      1  C8  RES d   1      -0.084   7.897   1.504  0.00  0.00     0.174 C 
ENDROOT
BRANCH   1   2
ATOM      2  O7  RES d   1      -0.066   6.473   1.383  0.00  0.00    -0.375 OA
BRANCH   2   3
ATOM      3  C6  RES d   1      -0.079   6.003   0.034  0.00  0.00     0.207 C 
BRANCH   3   4
ATOM      4  C5  RES d   1      -0.059   4.497   0.026  0.00  0.00    -0.035 A 
ATOM      5  C4  RES d   1      -1.247   3.789   0.040  0.00  0.00     0.011 A 
ATOM      6  C3  RES d   1      -1.229   2.407   0.033  0.00  0.00     0.024 A 
ATOM      7  C2  RES d   1      -0.021   1.732   0.012  0.00  0.00     0.034 A 
ATOM      8 Cl1  RES d   1       0.002  -0.004   0.002  0.00  0.00    -0.084 Cl
ATOM      9  C26 RES d   1       1.167   2.440   0.004  0.00  0.00     0.024 A 
ATOM     10  C25 RES d   1       1.147   3.822   0.006  0.00  0.00     0.011 A 
ENDBRANCH   3   4
ENDBRANCH   2   3
ENDBRANCH   1   2
BRANCH   1  11
ATOM     11  C10 RES d   1      -1.532   8.385   1.567  0.00  0.00     0.166 C 
BRANCH  11  12
ATOM     12  N11 RES d   1      -2.202   8.095   0.297  0.00  0.00    -0.349 N 
ATOM     13  C16 RES d   1      -2.878   6.968  -0.013  0.00  0.00     0.182 A 
ATOM     14  N14 RES d   1      -3.335   7.076  -1.231  0.00  0.00    -0.361 N 
ATOM     15  C13 RES d   1      -2.964   8.261  -1.739  0.00  0.00     0.106 A 
ATOM     16  H15 RES d   1      -3.858   6.405  -1.696  0.00  0.00     0.166 HD
ATOM     17  C12 RES d   1      -2.254   8.914  -0.799  0.00  0.00     0.108 A 
ENDBRANCH  11  12
ENDBRANCH   1  11
BRANCH   1  18
ATOM     18  C17 RES d   1       0.639   8.304   2.762  0.00  0.00    -0.006 A 
ATOM     19  C23 RES d   1       1.207   9.562   2.857  0.00  0.00     0.044 A 
ATOM     20  C22 RES d   1       1.866   9.938   4.013  0.00  0.00     0.048 A 
ATOM     21 Cl24 RES d   1       1.082  10.674   1.529  0.00  0.00    -0.084 Cl
ATOM     22  C20 RES d   1       1.966   9.051   5.071  0.00  0.00     0.035 A 
ATOM     23  C19 RES d   1       1.403   7.791   4.972  0.00  0.00     0.024 A 
ATOM     24 Cl21 RES d   1       2.799   9.519   6.520  0.00  0.00    -0.084 Cl
ATOM     25  C18 RES d   1       0.740   7.418   3.818  0.00  0.00     0.013 A 
ENDBRANCH   1  18
TORSDOF 6
