REMARK  6 active torsions:
REMARK  status: ('A' for Active; 'I' for Inactive)
REMARK    1  A    between atoms: C2_2  and  N3_3 
REMARK       I    between atoms: N6_6  and  C7_7 
REMARK       I    between atoms: C7_7  and  N9_9 
REMARK    2  A    between atoms: N9_9  and  C10_10 
REMARK    3  A    between atoms: C10_10  and  C12_11 
REMARK    4  A    between atoms: C10_10  and  C31_27 
REMARK       I    between atoms: C12_11  and  N14_13 
REMARK    5  A    between atoms: N14_13  and  C15_14 
REMARK    6  A    between atoms: C26_23  and  C28_24 
ROOT
ATOM      1  C10 ZIN AC000      -7.433  -2.340  -0.929  0.00  0.00     0.211 C 
ENDROOT
BRANCH   1   2
ATOM      2  N9  ZIN AC000      -6.023  -1.947  -0.989  0.00  0.00    -0.325 N 
ATOM      3  C7  ZIN AC000      -5.412  -1.462   0.110  0.00  0.00     0.326 C 
ATOM      4  N6  ZIN AC000      -4.146  -1.004   0.030  0.00  0.00    -0.260 N 
ATOM      5  O8  ZIN AC000      -6.001  -1.437   1.173  0.00  0.00    -0.247 OA
ATOM      6  C5  ZIN AC000      -3.401  -1.133  -1.222  0.00  0.00     0.157 C 
ATOM      7  C37 ZIN AC000      -3.570  -0.430   1.105  0.00  0.00     0.319 C 
ATOM      8  C4  ZIN AC000      -2.530   0.098  -1.456  0.00  0.00     0.146 C 
ATOM      9  N3  ZIN AC000      -1.711   0.378  -0.276  0.00  0.00    -0.343 N 
ATOM     10  C39 ZIN AC000      -2.215   0.187   0.960  0.00  0.00     0.312 C 
ATOM     11  O40 ZIN AC000      -1.582   0.519   1.940  0.00  0.00    -0.262 OA
ATOM     12  O38 ZIN AC000      -4.141  -0.417   2.176  0.00  0.00    -0.262 OA
ATOM     13  H50 ZIN AC000      -5.530  -2.036  -1.819  0.00  0.00     0.165 HD
BRANCH   9  14
ATOM     14  C2  ZIN AC000      -0.338   0.862  -0.438  0.00  0.00     0.122 C 
ATOM     15  C1  ZIN AC000       0.618  -0.331  -0.509  0.00  0.00     0.026 C 
ENDBRANCH   9  14
ENDBRANCH   1   2
BRANCH   1  16
ATOM     16  C12 ZIN AC000      -8.037  -2.253  -2.307  0.00  0.00     0.245 C 
ATOM     17  O13 ZIN AC000      -7.357  -1.899  -3.246  0.00  0.00    -0.271 OA
ATOM     18  N14 ZIN AC000      -9.334  -2.570  -2.495  0.00  0.00    -0.344 N 
ATOM     19  H51 ZIN AC000      -9.878  -2.854  -1.744  0.00  0.00     0.163 HD
BRANCH  18  20
ATOM     20  C15 ZIN AC000      -9.921  -2.486  -3.835  0.00  0.00     0.199 C 
ATOM     21  C20 ZIN AC000     -11.161  -3.366  -4.020  0.00  0.00     0.160 C 
ATOM     22  N19 ZIN AC000     -11.951  -2.114  -4.032  0.00  0.00    -0.219 NA
ATOM     23  S22 ZIN AC000     -11.704  -4.259  -2.516  0.00  0.00    -0.135 SA
ATOM     24  C17 ZIN AC000     -10.849  -1.304  -4.021  0.00  0.00     0.227 C 
ATOM     25  C26 ZIN AC000     -12.883  -1.965  -2.910  0.00  0.00     0.186 C 
ATOM     26  O18 ZIN AC000     -10.681  -0.107  -4.120  0.00  0.00    -0.277 OA
ATOM     27  C23 ZIN AC000     -13.313  -3.371  -2.386  0.00  0.00     0.029 C 
ATOM     28  C24 ZIN AC000     -14.375  -4.011  -3.283  0.00  0.00     0.029 C 
ATOM     29  C25 ZIN AC000     -13.790  -3.294  -0.935  0.00  0.00     0.029 C 
BRANCH  25  30
ATOM     30  C28 ZIN AC000     -14.101  -1.217  -3.385  0.00  0.00     0.193 C 
ATOM     31  O29 ZIN AC000     -14.726  -0.513  -2.610  0.00  0.00    -0.647 OA
ATOM     32  O30 ZIN AC000     -14.462  -1.314  -4.546  0.00  0.00    -0.647 OA
ENDBRANCH  25  30
ENDBRANCH  18  20
ENDBRANCH   1  16
BRANCH   1  33
ATOM     33  C31 ZIN AC000      -7.540  -3.755  -0.421  0.00  0.00    -0.026 A 
ATOM     34  C36 ZIN AC000      -8.544  -4.097   0.464  0.00  0.00     0.010 A 
ATOM     35  C35 ZIN AC000      -8.645  -5.396   0.927  0.00  0.00     0.001 A 
ATOM     36  C34 ZIN AC000      -7.735  -6.350   0.510  0.00  0.00     0.000 A 
ATOM     37  C33 ZIN AC000      -6.727  -6.006  -0.371  0.00  0.00     0.001 A 
ATOM     38  C32 ZIN AC000      -6.629  -4.708  -0.837  0.00  0.00     0.010 A 
ENDBRANCH   1  33
TORSDOF 6
