REMARK  5 active torsions:
REMARK  status: ('A' for Active; 'I' for Inactive)
REMARK    1  A    between atoms: N2_2  and  C5_5 
REMARK    2  A    between atoms: C5_5  and  C6_6 
REMARK    3  A    between atoms: C6_6  and  C7_7 
REMARK    4  A    between atoms: C7_7  and  C9_8 
REMARK    5  A    between atoms: C7_7  and  C15_14 
ROOT
ATOM      1  C7  <0> d          -2.794  -2.566  -0.111  0.00  0.00     0.072 C 
ENDROOT
BRANCH   1   2
ATOM      2  C6  <0> d          -1.304  -2.263   0.061  0.00  0.00     0.043 C 
BRANCH   2   3
ATOM      3  C5  <0> d          -1.112  -0.763   0.294  0.00  0.00     0.235 C 
BRANCH   3   4
ATOM      4  N2  <0> d           0.318  -0.472   0.459  0.00  0.00    -0.079 N 
ATOM      5  C1  <0> d           0.514   0.980   0.562  0.00  0.00     0.269 C 
ATOM      6  H3  <0> d           0.827  -0.825  -0.338  0.00  0.00     0.278 HD
ATOM      7  C4  <0> d           0.812  -1.121   1.681  0.00  0.00     0.269 C 
ENDBRANCH   3   4
ENDBRANCH   2   3
ENDBRANCH   1   2
BRANCH   1   8
ATOM      8  C9  <0> d          -3.519  -2.266   1.176  0.00  0.00    -0.048 A 
ATOM      9  C14 <0> d          -4.581  -1.381   1.180  0.00  0.00     0.008 A 
ATOM     10  C13 <0> d          -5.249  -1.109   2.359  0.00  0.00     0.001 A 
ATOM     11  C12 <0> d          -4.850  -1.715   3.536  0.00  0.00     0.000 A 
ATOM     12  C11 <0> d          -3.785  -2.596   3.532  0.00  0.00     0.001 A 
ATOM     13  C10 <0> d          -3.119  -2.872   2.352  0.00  0.00     0.008 A 
ENDBRANCH   1   8
BRANCH   1  14
ATOM     14  C15 <0> d          -2.974  -4.021  -0.461  0.00  0.00     0.042 A 
ATOM     15  N20 <0> d          -3.936  -4.378  -1.289  0.00  0.00    -0.265 NA
ATOM     16  C19 <0> d          -4.128  -5.637  -1.628  0.00  0.00     0.117 A 
ATOM     17  C18 <0> d          -3.325  -6.638  -1.113  0.00  0.00     0.019 A 
ATOM     18  C17 <0> d          -2.306  -6.302  -0.236  0.00  0.00     0.003 A 
ATOM     19  C16 <0> d          -2.131  -4.966   0.093  0.00  0.00     0.028 A 
ENDBRANCH   1  14
TORSDOF 5
