REMARK  7 active torsions:
REMARK  status: ('A' for Active; 'I' for Inactive)
REMARK    1  A    between atoms: N1_1  and  C2_2 
REMARK    2  A    between atoms: C2_2  and  C4_3 
REMARK    3  A    between atoms: C2_2  and  C7_6 
REMARK    4  A    between atoms: C7_6  and  O9_7 
REMARK    5  A    between atoms: C7_6  and  C10_8 
REMARK    6  A    between atoms: C13_11  and  O14_12 
REMARK    7  A    between atoms: C15_13  and  O16_14 
ROOT
ATOM      1  C10 ZIN AC000       2.039   0.024  -1.411  0.00  0.00    -0.024 A 
ATOM      2  C11 ZIN AC000       2.264   1.322  -1.829  0.00  0.00     0.013 A 
ATOM      3  C12 ZIN AC000       3.555   1.806  -1.931  0.00  0.00     0.040 A 
ATOM      4  C13 ZIN AC000       4.628   0.989  -1.613  0.00  0.00     0.098 A 
ATOM      5  C15 ZIN AC000       4.402  -0.319  -1.192  0.00  0.00     0.099 A 
ATOM      6  C17 ZIN AC000       3.105  -0.796  -1.088  0.00  0.00     0.049 A 
ENDROOT
BRANCH   1   7
ATOM      7  C7  ZIN AC000       0.630  -0.498  -1.303  0.00  0.00     0.195 C 
BRANCH   7   8
ATOM      8  C2  ZIN AC000       0.002  -0.004   0.002  0.00  0.00     0.350 C 
BRANCH   8   9
ATOM      9  N1  ZIN AC000      -0.018   1.465   0.010  0.00  0.00     0.096 N 
ATOM     10  H18 ZIN AC000       0.919   1.839   0.003  0.00  0.00     0.314 HD
ATOM     11  H19 ZIN AC000      -0.556   1.823  -0.764  0.00  0.00     0.314 HD
ENDBRANCH   8   9
BRANCH   8  12
ATOM     12  C4  ZIN AC000      -1.407  -0.526   0.111  0.00  0.00     0.210 C 
ATOM     13  O5  ZIN AC000      -2.351   0.239   0.004  0.00  0.00    -0.646 OA
ATOM     14  O6  ZIN AC000      -1.604  -1.714   0.305  0.00  0.00    -0.646 OA
ENDBRANCH   8  12
ENDBRANCH   7   8
BRANCH   7  15
ATOM     15  O9  ZIN AC000      -0.140  -0.026  -2.410  0.00  0.00    -0.388 OA
ATOM     16  H20 ZIN AC000      -0.196   0.937  -2.468  0.00  0.00     0.210 HD
ENDBRANCH   7  15
ENDBRANCH   1   7
BRANCH   5  17
ATOM     17  O16 ZIN AC000       5.452  -1.125  -0.879  0.00  0.00    -0.358 OA
ATOM     18  H24 ZIN AC000       5.717  -1.082   0.049  0.00  0.00     0.217 HD
ENDBRANCH   5  17
BRANCH   4  19
ATOM     19  O14 ZIN AC000       5.898   1.463  -1.712  0.00  0.00    -0.358 OA
ATOM     20  H23 ZIN AC000       6.228   1.876  -0.903  0.00  0.00     0.217 HD
ENDBRANCH   4  19
TORSDOF 7
