REMARK  7 active torsions:
REMARK  status: ('A' for Active; 'I' for Inactive)
REMARK    1  A    between atoms: N2_2  and  C3_3 
REMARK    2  A    between atoms: N2_2  and  C21_20 
REMARK    3  A    between atoms: C3_3  and  C4_4 
REMARK    4  A    between atoms: C4_4  and  O5_5 
REMARK    5  A    between atoms: O5_5  and  C6_6 
REMARK    6  A    between atoms: C9_9  and  C10_10 
REMARK    7  A    between atoms: C10_10  and  C11_11 
ROOT
ATOM      1  C6  <0> d          -3.335  -2.240   1.041  0.00  0.00     0.068 A 
ATOM      2  C7  <0> d          -3.976  -1.747   2.169  0.00  0.00     0.037 A 
ATOM      3  C8  <0> d          -5.285  -2.102   2.428  0.00  0.00     0.010 A 
ATOM      4  C9  <0> d          -5.957  -2.947   1.565  0.00  0.00    -0.056 A 
ATOM      5  C19 <0> d          -5.321  -3.439   0.440  0.00  0.00     0.010 A 
ATOM      6  C20 <0> d          -4.013  -3.084   0.174  0.00  0.00     0.037 A 
ENDROOT
BRANCH   1   7
ATOM      7  O5  <0> d          -2.046  -1.892   0.784  0.00  0.00    -0.350 OA
BRANCH   7   8
ATOM      8  C4  <0> d          -1.411  -1.020   1.720  0.00  0.00     0.195 C 
BRANCH   8   9
ATOM      9  C3  <0> d           0.024  -0.743   1.267  0.00  0.00     0.150 C 
BRANCH   9  10
ATOM     10  N2  <0> d           0.002  -0.004   0.002  0.00  0.00    -0.370 N 
ATOM     11  C1  <0> d          -0.018   1.461   0.010  0.00  0.00     0.151 C 
BRANCH  10  12
ATOM     12  C21 <0> d           0.000  -0.693  -1.206  0.00  0.00     0.102 A 
ATOM     13  N26 <0> d          -0.020  -0.018  -2.345  0.00  0.00    -0.352 N 
ATOM     14  C25 <0> d          -0.018  -0.633  -3.513  0.00  0.00     0.089 A 
ATOM     15  H27 <0> d          -0.029   0.951  -2.321  0.00  0.00     0.166 HD
ATOM     16  C24 <0> d          -0.005  -2.012  -3.587  0.00  0.00     0.017 A 
ATOM     17  C23 <0> d           0.011  -2.756  -2.415  0.00  0.00     0.005 A 
ATOM     18  C22 <0> d           0.013  -2.083  -1.206  0.00  0.00     0.048 A 
ENDBRANCH  10  12
ENDBRANCH   9  10
ENDBRANCH   8   9
ENDBRANCH   7   8
ENDBRANCH   1   7
BRANCH   4  19
ATOM     19  C10 <0> d          -7.386  -3.333   1.850  0.00  0.00     0.063 C 
BRANCH  19  20
ATOM     20  C11 <0> d          -8.328  -2.325   1.188  0.00  0.00     0.153 A 
ATOM     21  C17 <0> d          -9.771  -2.650   1.510  0.00  0.00     0.239 A 
ATOM     22  N16 <0> d         -10.502  -2.933   0.440  0.00  0.00    -0.287 N 
ATOM     23  O18 <0> d         -10.216  -2.656   2.638  0.00  0.00    -0.272 OA
ATOM     24  C14 <0> d          -9.974  -2.916  -0.785  0.00  0.00     0.287 A 
ATOM     25  H39 <0> d         -11.440  -3.154   0.551  0.00  0.00     0.172 HD
ATOM     26  S13 <0> d          -8.263  -2.478  -0.629  0.00  0.00    -0.054 SA
ATOM     27  O15 <0> d         -10.561  -3.157  -1.823  0.00  0.00    -0.260 OA
ENDBRANCH  19  20
ENDBRANCH   4  19
TORSDOF 7
