REMARK  2 active torsions:
REMARK  status: ('A' for Active; 'I' for Inactive)
REMARK    1  A    between atoms: N1_1  and  C2_2 
REMARK    2  A    between atoms: N9_9  and  C10_10 
ROOT
ATOM      1  C2  ZIN AC000      -0.004  -0.203   0.687  0.00  0.00     0.034 A 
ATOM      2  C3  ZIN AC000      -1.194  -0.808   0.298  0.00  0.00     0.029 A 
ATOM      3  C4  ZIN AC000      -1.170  -1.988  -0.423  0.00  0.00     0.003 A 
ATOM      4  C5  ZIN AC000       0.032  -2.574  -0.762  0.00  0.00     0.018 A 
ATOM      5  C6  ZIN AC000       1.234  -1.976  -0.378  0.00  0.00     0.042 A 
ATOM      6  C7  ZIN AC000       1.205  -0.782   0.345  0.00  0.00     0.002 A 
ATOM      7  C8  ZIN AC000       2.642  -0.402   0.601  0.00  0.00     0.169 A 
ATOM      8  N9  ZIN AC000       3.460  -1.451  -0.019  0.00  0.00    -0.330 N 
ATOM      9  C19 ZIN AC000       2.644  -2.355  -0.588  0.00  0.00     0.255 A 
ATOM     10  O20 ZIN AC000       3.015  -3.348  -1.183  0.00  0.00    -0.267 OA
ENDROOT
BRANCH   8  11
ATOM     11  C10 ZIN AC000       4.924  -1.501  -0.021  0.00  0.00     0.180 C 
ATOM     12  C17 ZIN AC000       5.474  -0.121  -0.267  0.00  0.00     0.247 C 
ATOM     13  N16 ZIN AC000       5.753   0.708   0.752  0.00  0.00    -0.296 N 
ATOM     14  O18 ZIN AC000       5.670   0.249  -1.405  0.00  0.00    -0.271 OA
ATOM     15  C14 ZIN AC000       5.572   0.362   2.035  0.00  0.00     0.224 C 
ATOM     16  H32 ZIN AC000       6.099   1.592   0.552  0.00  0.00     0.171 HD
ATOM     17  C13 ZIN AC000       5.027  -0.990   2.412  0.00  0.00     0.106 C 
ATOM     18  O15 ZIN AC000       5.853   1.154   2.909  0.00  0.00    -0.273 OA
ATOM     19  C12 ZIN AC000       5.421  -2.008   1.337  0.00  0.00     0.044 C 
ENDBRANCH   8  11
BRANCH   1  20
ATOM     20  N1  ZIN AC000      -0.028   0.989   1.415  0.00  0.00    -0.399 N 
ATOM     21  H21 ZIN AC000       0.803   1.411   1.682  0.00  0.00     0.156 HD
ATOM     22  H22 ZIN AC000      -0.877   1.395   1.651  0.00  0.00     0.156 HD
ENDBRANCH   1  20
TORSDOF 2
