REMARK  4 active torsions:
REMARK  status: ('A' for Active; 'I' for Inactive)
REMARK    1  A    between atoms: C2_2  and  N4_3 
REMARK    2  A    between atoms: C2_2  and  C8_7 
REMARK    3  A    between atoms: C8_7  and  C9_8 
REMARK    4  A    between atoms: C12_11  and  O13_12 
ROOT
ATOM      1  C9  <0> d          -1.416  -2.035  -0.119  0.00  0.00    -0.056 A 
ATOM      2  C10 <0> d          -1.450  -2.618  -1.373  0.00  0.00     0.010 A 
ATOM      3  C11 <0> d          -1.434  -3.994  -1.496  0.00  0.00     0.037 A 
ATOM      4  C12 <0> d          -1.384  -4.790  -0.362  0.00  0.00     0.065 A 
ATOM      5  C14 <0> d          -1.349  -4.203   0.895  0.00  0.00     0.037 A 
ATOM      6  C15 <0> d          -1.360  -2.827   1.013  0.00  0.00     0.010 A 
ENDROOT
BRANCH   1   7
ATOM      7  C8  <0> d          -1.433  -0.534   0.013  0.00  0.00     0.070 C 
BRANCH   7   8
ATOM      8  C2  <0> d           0.002  -0.004   0.002  0.00  0.00     0.183 C 
ATOM      9  C1  <0> d          -0.019   1.526   0.010  0.00  0.00     0.040 C 
BRANCH   8  10
ATOM     10  N4  <0> d           0.713  -0.491   1.192  0.00  0.00    -0.075 N 
ATOM     11  H5  <0> d           0.240  -0.165   2.022  0.00  0.00     0.274 HD
ATOM     12  H6  <0> d           0.726  -1.500   1.187  0.00  0.00     0.274 HD
ATOM     13  H7  <0> d           1.659  -0.141   1.185  0.00  0.00     0.274 HD
ENDBRANCH   8  10
ENDBRANCH   7   8
ENDBRANCH   1   7
BRANCH   4  14
ATOM     14  O13 <0> d          -1.367  -6.144  -0.481  0.00  0.00    -0.361 OA
ATOM     15  H23 <0> d          -0.480  -6.523  -0.545  0.00  0.00     0.217 HD
ENDBRANCH   4  14
TORSDOF 4
