REMARK  3 active torsions:
REMARK  status: ('A' for Active; 'I' for Inactive)
REMARK    1  A    between atoms: N1_1  and  C2_2 
REMARK    2  A    between atoms: C4_4  and  N5_5 
REMARK    3  A    between atoms: C12_12  and  N13_13 
ROOT
ATOM      1  C2  <0> d           0.011  -0.019  -0.205  0.00  0.00     0.152 A 
ATOM      2  C3  <0> d          -1.178  -0.741  -0.212  0.00  0.00     0.102 A 
ATOM      3  C4  <0> d          -1.121  -2.115  -0.004  0.00  0.00     0.148 A 
ATOM      4  N11 <0> d           0.063  -2.691   0.194  0.00  0.00    -0.045 NA
ATOM      5  C12 <0> d           1.176  -1.972   0.194  0.00  0.00     0.730 A 
ATOM      6  N14 <0> d           1.159  -0.663  -0.006  0.00  0.00     0.001 N 
ATOM      7  O15 <0> d           2.376   0.061   0.003  0.00  0.00    -0.063 OA
ENDROOT
BRANCH   3   8
ATOM      8  N5  <0> d          -2.281  -2.876  -0.003  0.00  0.00    -0.365 N 
ATOM      9  C10 <0> d          -3.600  -2.228   0.006  0.00  0.00     0.124 C 
ATOM     10  C9  <0> d          -4.420  -2.785   1.168  0.00  0.00     0.020 C 
ATOM     11  C8  <0> d          -4.469  -4.312   1.070  0.00  0.00     0.003 C 
ATOM     12  C7  <0> d          -3.050  -4.877   1.163  0.00  0.00     0.020 C 
ATOM     13  C6  <0> d          -2.215  -4.344  -0.005  0.00  0.00     0.124 C 
ENDBRANCH   3   8
BRANCH   1  14
ATOM     14  N1  <0> d           0.002   1.355  -0.409  0.00  0.00    -0.383 N 
ATOM     15  H16 <0> d           0.836   1.851  -0.407  0.00  0.00     0.157 HD
ATOM     16  H17 <0> d          -0.837   1.817  -0.557  0.00  0.00     0.157 HD
ENDBRANCH   1  14
BRANCH   5  17
ATOM     17  N13 <0> d           2.390  -2.607   0.404  0.00  0.00    -0.230 N 
ATOM     18  H29 <0> d           2.417  -3.566   0.548  0.00  0.00     0.174 HD
ATOM     19  H30 <0> d           3.212  -2.093   0.406  0.00  0.00     0.174 HD
ENDBRANCH   5  17
TORSDOF 3
