REMARK  5 active torsions:
REMARK  status: ('A' for Active; 'I' for Inactive)
REMARK    1  A    between atoms: O1_1  and  C2_2 
REMARK    2  A    between atoms: C2_2  and  C3_3 
REMARK    3  A    between atoms: C6_5  and  N8_6 
REMARK    4  A    between atoms: C18_16  and  O20_17 
REMARK    5  A    between atoms: C22_19  and  O24_20 
ROOT
ATOM      1  N8  ZIN AC000      -3.640  -1.286  -2.712  0.00  0.00    -0.300 N 
ATOM      2  C9  ZIN AC000      -2.901  -1.037  -3.827  0.00  0.00     0.187 A 
ATOM      3  N10 ZIN AC000      -3.644  -1.250  -4.875  0.00  0.00    -0.350 N 
ATOM      4  H11 ZIN AC000      -3.356  -1.147  -5.796  0.00  0.00     0.166 HD
ATOM      5  C12 ZIN AC000      -4.876  -1.634  -4.485  0.00  0.00     0.085 A 
ATOM      6  C13 ZIN AC000      -4.880  -1.688  -3.138  0.00  0.00     0.137 A 
ATOM      7  N14 ZIN AC000      -5.926  -2.100  -2.312  0.00  0.00    -0.335 N 
ATOM      8  C15 ZIN AC000      -6.686  -3.188  -2.671  0.00  0.00     0.202 C 
ATOM      9  N16 ZIN AC000      -7.343  -3.160  -3.766  0.00  0.00    -0.282 NA
ATOM     10  C17 ZIN AC000      -7.333  -2.031  -4.678  0.00  0.00     0.188 C 
ATOM     11  C18 ZIN AC000      -6.016  -1.918  -5.430  0.00  0.00     0.191 C 
ATOM     12  H29 ZIN AC000      -6.116  -1.621  -1.490  0.00  0.00     0.168 HD
ENDROOT
BRANCH   1  13
ATOM     13  C6  ZIN AC000      -3.194  -1.154  -1.323  0.00  0.00     0.233 C 
ATOM     14  O5  ZIN AC000      -2.093  -0.224  -1.234  0.00  0.00    -0.356 OA
ATOM     15  C3  ZIN AC000      -1.433  -0.534   0.013  0.00  0.00     0.176 C 
ATOM     16  C22 ZIN AC000      -1.437  -2.076   0.092  0.00  0.00     0.153 C 
ATOM     17  C21 ZIN AC000      -2.622  -2.494  -0.810  0.00  0.00     0.088 C 
BRANCH  15  18
ATOM     18  C2  ZIN AC000       0.002  -0.004   0.002  0.00  0.00     0.198 C 
BRANCH  18  19
ATOM     19  O1  ZIN AC000      -0.017   1.425   0.010  0.00  0.00    -0.398 OA
ATOM     20  H25 ZIN AC000       0.861   1.830   0.004  0.00  0.00     0.209 HD
ENDBRANCH  18  19
ENDBRANCH  15  18
BRANCH  16  21
ATOM     21  O24 ZIN AC000      -1.651  -2.515   1.435  0.00  0.00    -0.393 OA
ATOM     22  H36 ZIN AC000      -1.720  -3.475   1.529  0.00  0.00     0.210 HD
ENDBRANCH  16  21
ENDBRANCH   1  13
BRANCH  11  23
ATOM     23  O20 ZIN AC000      -6.107  -0.854  -6.378  0.00  0.00    -0.388 OA
ATOM     24  H33 ZIN AC000      -6.806  -0.972  -7.037  0.00  0.00     0.210 HD
ENDBRANCH  11  23
TORSDOF 5
