REMARK  9 active torsions:
REMARK  status: ('A' for Active; 'I' for Inactive)
REMARK    1  A    between atoms: O1_1  and  C2_2 
REMARK    2  A    between atoms: C2_2  and  C3_3 
REMARK    3  A    between atoms: C3_3  and  O4_4 
REMARK    4  A    between atoms: O4_4  and  C5_5 
REMARK    5  A    between atoms: C5_5  and  C6_6 
REMARK    6  A    between atoms: C6_6  and  N7_7 
REMARK    7  A    between atoms: N10_10  and  C12_12 
REMARK    8  A    between atoms: C12_12  and  C14_13 
REMARK    9  A    between atoms: C12_12  and  C20_19 
ROOT
ATOM      1  N7  <0> d          -3.424  -0.769  -3.803  0.00  0.00     0.093 N 
ATOM      2  C8  <0> d          -1.961  -0.805  -3.674  0.00  0.00     0.300 C 
ATOM      3  C9  <0> d          -1.361  -1.510  -4.893  0.00  0.00     0.266 C 
ATOM      4  N10 <0> d          -1.745  -0.790  -6.114  0.00  0.00    -0.055 N 
ATOM      5  H11 <0> d          -1.408   0.160  -6.063  0.00  0.00     0.281 HD
ATOM      6  C27 <0> d          -3.208  -0.784  -6.242  0.00  0.00     0.266 C 
ATOM      7  C28 <0> d          -3.823  -0.072  -5.034  0.00  0.00     0.300 C 
ENDROOT
BRANCH   4   8
ATOM      8  C12 <0> d          -1.155  -1.457  -7.282  0.00  0.00     0.254 C 
BRANCH   8   9
ATOM      9  C14 <0> d          -1.548  -0.718  -8.535  0.00  0.00    -0.023 A 
ATOM     10  C19 <0> d          -1.880  -1.422  -9.677  0.00  0.00     0.009 A 
ATOM     11  C18 <0> d          -2.245  -0.744 -10.825  0.00  0.00     0.001 A 
ATOM     12  C17 <0> d          -2.270   0.638 -10.833  0.00  0.00     0.000 A 
ATOM     13  C16 <0> d          -1.933   1.343  -9.692  0.00  0.00     0.001 A 
ATOM     14  C15 <0> d          -1.572   0.664  -8.543  0.00  0.00     0.009 A 
ENDBRANCH   8   9
BRANCH   8  15
ATOM     15  C20 <0> d           0.347  -1.462  -7.152  0.00  0.00    -0.023 A 
ATOM     16  C26 <0> d           1.069  -2.580  -7.526  0.00  0.00     0.011 A 
ATOM     17  C25 <0> d           2.446  -2.583  -7.412  0.00  0.00     0.024 A 
ATOM     18  C23 <0> d           3.101  -1.471  -6.914  0.00  0.00     0.034 A 
ATOM     19  C22 <0> d           2.378  -0.354  -6.535  0.00  0.00     0.024 A 
ATOM     20 Cl24 <0> d           4.831  -1.477  -6.764  0.00  0.00    -0.084 Cl
ATOM     21  C21 <0> d           1.001  -0.350  -6.654  0.00  0.00     0.011 A 
ENDBRANCH   8  15
ENDBRANCH   4   8
BRANCH   1  22
ATOM     22  C6  <0> d          -4.042  -0.149  -2.623  0.00  0.00     0.298 C 
BRANCH  22  23
ATOM     23  C5  <0> d          -3.306   1.150  -2.286  0.00  0.00     0.198 C 
BRANCH  23  24
ATOM     24  O4  <0> d          -3.497   2.093  -3.342  0.00  0.00    -0.387 OA
BRANCH  24  25
ATOM     25  C3  <0> d          -2.847   3.347  -3.126  0.00  0.00     0.193 C 
BRANCH  25  26
ATOM     26  C2  <0> d          -3.117   4.274  -4.313  0.00  0.00     0.190 C 
BRANCH  26  27
ATOM     27  O1  <0> d          -4.513   4.576  -4.373  0.00  0.00    -0.399 OA
ATOM     28  H29 <0> d          -4.758   5.160  -5.104  0.00  0.00     0.209 HD
ENDBRANCH  26  27
ENDBRANCH  25  26
ENDBRANCH  24  25
ENDBRANCH  23  24
ENDBRANCH  22  23
ENDBRANCH   1  22
TORSDOF 9
