REMARK  8 active torsions:
REMARK  status: ('A' for Active; 'I' for Inactive)
REMARK    1  A    between atoms: O2_2  and  C3_3 
REMARK    2  A    between atoms: C3_3  and  C5_5 
REMARK    3  A    between atoms: C11_11  and  C12_12 
REMARK    4  A    between atoms: C12_12  and  O14_14 
REMARK    5  A    between atoms: O14_14  and  C15_15 
REMARK    6  A    between atoms: C15_15  and  C16_16 
REMARK    7  A    between atoms: C19_19  and  C21_20 
REMARK    8  A    between atoms: C26_25  and  N27_26 
ROOT
ATOM      1  C5  <0> d          -0.144  -4.011   0.333  0.00  0.00     0.052 C 
ATOM      2  C6  <0> d          -1.122  -4.932   0.369  0.00  0.00     0.018 C 
ATOM      3  C7  <0> d          -2.389  -4.643   1.133  0.00  0.00     0.069 C 
ATOM      4  N8  <0> d          -0.983  -6.128  -0.281  0.00  0.00    -0.362 N 
ATOM      5  C9  <0> d           0.256  -6.563  -0.666  0.00  0.00     0.018 C 
ATOM      6  C10 <0> d           0.461  -8.017  -1.008  0.00  0.00     0.069 C 
ATOM      7  C11 <0> d           1.292  -5.710  -0.745  0.00  0.00     0.052 C 
ATOM      8  C19 <0> d           1.129  -4.249  -0.428  0.00  0.00     0.103 C 
ATOM      9  H36 <0> d          -1.765  -6.670  -0.468  0.00  0.00     0.165 HD
ENDROOT
BRANCH   8  10
ATOM     10  C21 <0> d           1.104  -3.462  -1.713  0.00  0.00    -0.012 A 
ATOM     11  C26 <0> d           1.932  -2.365  -1.868  0.00  0.00     0.110 A 
ATOM     12  C25 <0> d           1.912  -1.646  -3.048  0.00  0.00     0.037 A 
ATOM     13  C24 <0> d           1.058  -2.018  -4.070  0.00  0.00     0.002 A 
ATOM     14  C23 <0> d           0.228  -3.111  -3.913  0.00  0.00     0.001 A 
ATOM     15  C22 <0> d           0.251  -3.834  -2.734  0.00  0.00     0.011 A 
BRANCH  11  16
ATOM     16  N27 <0> d           2.845  -1.967  -0.773  0.00  0.00    -0.115 N 
ATOM     17  O28 <0> d           4.011  -1.712  -1.016  0.00  0.00    -0.532 OA
ATOM     18  O29 <0> d           2.431  -1.895   0.370  0.00  0.00    -0.532 OA
ENDBRANCH  11  16
ENDBRANCH   8  10
BRANCH   1  19
ATOM     19  C3  <0> d          -0.319  -2.788   1.022  0.00  0.00     0.291 C 
ATOM     20  O4  <0> d           0.302  -2.572   2.046  0.00  0.00    -0.260 OA
BRANCH  19  21
ATOM     21  O2  <0> d          -1.175  -1.861   0.543  0.00  0.00    -0.323 OA
ATOM     22  C1  <0> d          -1.303  -0.649   1.290  0.00  0.00     0.213 C 
ENDBRANCH  19  21
ENDBRANCH   1  19
BRANCH   7  23
ATOM     23  C12 <0> d           2.560  -6.197  -1.141  0.00  0.00     0.292 C 
ATOM     24  O13 <0> d           2.704  -7.376  -1.405  0.00  0.00    -0.259 OA
BRANCH  23  25
ATOM     25  O14 <0> d           3.610  -5.353  -1.225  0.00  0.00    -0.317 OA
BRANCH  25  26
ATOM     26  C15 <0> d           4.861  -5.912  -1.630  0.00  0.00     0.183 C 
BRANCH  26  27
ATOM     27  C16 <0> d           5.923  -4.812  -1.667  0.00  0.00     0.002 C 
ATOM     28  C17 <0> d           7.287  -5.431  -1.980  0.00  0.00     0.011 C 
ATOM     29  C18 <0> d           5.565  -3.794  -2.751  0.00  0.00     0.011 C 
ENDBRANCH  26  27
ENDBRANCH  25  26
ENDBRANCH  23  25
ENDBRANCH   7  23
TORSDOF 8
