REMARK  4 active torsions:
REMARK  status: ('A' for Active; 'I' for Inactive)
REMARK    1  A    between atoms: C5_5  and  C6_6 
REMARK    2  A    between atoms: C6_6  and  C8_8 
REMARK    3  A    between atoms: C11_11  and  C12_12 
REMARK    4  A    between atoms: C12_12  and  C13_13 
ROOT
ATOM      1  C8  <0> d           0.189  -4.989   1.238  0.00  0.00     0.086 A 
ATOM      2  C9  <0> d           0.194  -4.444   2.507  0.00  0.00     0.036 A 
ATOM      3  C10 <0> d           0.335  -5.503   3.408  0.00  0.00     0.028 A 
ATOM      4  C11 <0> d           0.411  -6.651   2.692  0.00  0.00     0.021 A 
ATOM      5  N16 <0> d           0.318  -6.354   1.373  0.00  0.00    -0.351 N 
ATOM      6  C17 <0> d           0.358  -7.321   0.273  0.00  0.00     0.156 C 
ENDROOT
BRANCH   1   7
ATOM      7  C6  <0> d           0.062  -4.252  -0.021  0.00  0.00     0.208 C 
ATOM      8  O7  <0> d           0.197  -4.832  -1.083  0.00  0.00    -0.285 OA
BRANCH   7   9
ATOM      9  C5  <0> d          -0.232  -2.802  -0.003  0.00  0.00     0.016 A 
ATOM     10  C4  <0> d          -1.036  -2.263   1.002  0.00  0.00     0.016 A 
ATOM     11  C3  <0> d          -1.306  -0.910   1.013  0.00  0.00     0.007 A 
ATOM     12  C2  <0> d          -0.781  -0.088   0.031  0.00  0.00    -0.062 A 
ATOM     13  C1  <0> d          -1.081   1.388   0.049  0.00  0.00     0.048 C 
ATOM     14  C19 <0> d           0.012  -0.618  -0.971  0.00  0.00     0.007 A 
ATOM     15  C18 <0> d           0.294  -1.968  -0.991  0.00  0.00     0.016 A 
ENDBRANCH   7   9
ENDBRANCH   1   7
BRANCH   4  16
ATOM     16  C12 <0> d           0.568  -8.034   3.268  0.00  0.00     0.170 C 
BRANCH  16  17
ATOM     17  C13 <0> d          -0.787  -8.581   3.638  0.00  0.00     0.178 C 
ATOM     18  O14 <0> d          -1.787  -7.909   3.450  0.00  0.00    -0.648 OA
ATOM     19  O15 <0> d          -0.884  -9.694   4.125  0.00  0.00    -0.648 OA
ENDBRANCH  16  17
ENDBRANCH   4  16
TORSDOF 4
