REMARK  1 active torsions:
REMARK  status: ('A' for Active; 'I' for Inactive)
REMARK    1  A    between atoms: C2_2  and  C3_3 
REMARK       I    between atoms: C2_2  and  N9_9 
ROOT
ATOM      1  O1  ZIN AC000       0.128   0.004  -0.005  0.00  0.00    -0.273 OA
ATOM      2  C2  ZIN AC000      -0.014   1.209   0.009  0.00  0.00     0.224 C 
ATOM      3  N9  ZIN AC000      -1.253   1.741   0.014  0.00  0.00    -0.341 N 
ATOM      4  C10 ZIN AC000      -1.460   3.194  -0.090  0.00  0.00     0.228 C 
ATOM      5  C11 ZIN AC000      -2.509   3.444  -1.139  0.00  0.00     0.238 C 
ATOM      6  O12 ZIN AC000      -2.558   4.535  -1.667  0.00  0.00    -0.272 OA
ATOM      7  N13 ZIN AC000      -3.393   2.508  -1.511  0.00  0.00    -0.340 N 
ATOM      8  C14 ZIN AC000      -4.474   2.900  -2.439  0.00  0.00     0.131 C 
ATOM      9  C15 ZIN AC000      -5.808   2.716  -1.717  0.00  0.00     0.059 C 
ATOM     10  C16 ZIN AC000      -5.878   1.359  -1.067  0.00  0.00    -0.048 A 
ATOM     11  C17 ZIN AC000      -7.133   0.839  -0.782  0.00  0.00     0.008 A 
ATOM     12  C18 ZIN AC000      -7.260  -0.395  -0.178  0.00  0.00     0.001 A 
ATOM     13  C19 ZIN AC000      -6.129  -1.120   0.147  0.00  0.00     0.001 A 
ATOM     14  C20 ZIN AC000      -4.880  -0.608  -0.140  0.00  0.00     0.010 A 
ATOM     15  C21 ZIN AC000      -4.751   0.631  -0.753  0.00  0.00    -0.027 A 
ATOM     16  C22 ZIN AC000      -3.363   1.126  -1.065  0.00  0.00     0.139 C 
ATOM     17  C24 ZIN AC000      -2.446   0.893   0.118  0.00  0.00     0.156 C 
ENDROOT
BRANCH   2  18
ATOM     18  C3  ZIN AC000       1.193   2.110   0.014  0.00  0.00     0.078 C 
ATOM     19  C8  ZIN AC000       1.669   2.334  -1.423  0.00  0.00     0.014 C 
ATOM     20  C7  ZIN AC000       2.895   3.249  -1.418  0.00  0.00     0.001 C 
ATOM     21  C6  ZIN AC000       4.015   2.596  -0.606  0.00  0.00     0.000 C 
ATOM     22  C5  ZIN AC000       3.540   2.372   0.831  0.00  0.00     0.001 C 
ATOM     23  C4  ZIN AC000       2.314   1.457   0.826  0.00  0.00     0.014 C 
ENDBRANCH   2  18
TORSDOF 1
