REMARK  2 active torsions:
REMARK  status: ('A' for Active; 'I' for Inactive)
REMARK    1  A    between atoms: C7_6  and  N8_7 
REMARK    2  A    between atoms: C23_22  and  C24_23 
ROOT
ATOM      1  C1  ZIN AC000      -0.481   1.299   0.127  0.00  0.00     0.035 C 
ATOM      2  C2  ZIN AC000      -0.317  -0.223   0.120  0.00  0.00     0.110 C 
ATOM      3  C4  ZIN AC000       0.372  -0.656  -1.177  0.00  0.00     0.201 C 
ATOM      4  O5  ZIN AC000       0.642  -2.061  -1.106  0.00  0.00    -0.345 OA
ATOM      5  C6  ZIN AC000       1.370  -2.472  -0.030  0.00  0.00     0.121 A 
ATOM      6  C7  ZIN AC000       2.168  -3.603  -0.121  0.00  0.00     0.086 A 
ATOM      7  C16 ZIN AC000       2.921  -4.027   0.976  0.00  0.00     0.141 A 
ATOM      8  F17 ZIN AC000       3.692  -5.132   0.877  0.00  0.00    -0.204 F 
ATOM      9  C18 ZIN AC000       2.880  -3.329   2.150  0.00  0.00     0.062 A 
ATOM     10  C19 ZIN AC000       2.080  -2.188   2.256  0.00  0.00     0.048 A 
ATOM     11  C20 ZIN AC000       1.310  -1.754   1.163  0.00  0.00     0.085 A 
ATOM     12  N21 ZIN AC000       0.505  -0.633   1.269  0.00  0.00    -0.346 N 
ATOM     13  C22 ZIN AC000       0.444   0.096   2.394  0.00  0.00     0.114 A 
ATOM     14  C23 ZIN AC000       1.159  -0.228   3.529  0.00  0.00     0.107 A 
ATOM     15  C27 ZIN AC000       2.027  -1.417   3.510  0.00  0.00     0.203 A 
ATOM     16  O28 ZIN AC000       2.671  -1.751   4.490  0.00  0.00    -0.286 OA
ENDROOT
BRANCH   6  17
ATOM     17  N8  ZIN AC000       2.219  -4.322  -1.316  0.00  0.00    -0.275 NA
ATOM     18  C15 ZIN AC000       3.571  -4.290  -1.893  0.00  0.00     0.123 C 
ATOM     19  C14 ZIN AC000       3.570  -5.037  -3.228  0.00  0.00     0.249 C 
ATOM     20  N11 ZIN AC000       3.144  -6.426  -3.013  0.00  0.00    -0.073 N 
ATOM     21  C10 ZIN AC000       1.783  -6.442  -2.460  0.00  0.00     0.249 C 
ATOM     22  H12 ZIN AC000       3.775  -6.875  -2.365  0.00  0.00     0.279 HD
ATOM     23  C13 ZIN AC000       3.161  -7.147  -4.292  0.00  0.00     0.269 C 
ATOM     24  C9  ZIN AC000       1.769  -5.707  -1.118  0.00  0.00     0.123 C 
ENDBRANCH   6  17
BRANCH  14  25
ATOM     25  C24 ZIN AC000       1.056   0.601   4.735  0.00  0.00     0.214 C 
ATOM     26  O25 ZIN AC000       0.332   1.587   4.740  0.00  0.00    -0.644 OA
ATOM     27  O26 ZIN AC000       1.695   0.305   5.737  0.00  0.00    -0.644 OA
ENDBRANCH  14  25
TORSDOF 2
