REMARK  7 active torsions:
REMARK  status: ('A' for Active; 'I' for Inactive)
REMARK    1  A    between atoms: C2_2  and  C4_3 
REMARK    2  A    between atoms: C2_2  and  C9_8 
REMARK    3  A    between atoms: C4_3  and  C5_4 
REMARK    4  A    between atoms: C5_4  and  C6_5 
REMARK    5  A    between atoms: C17_13  and  O19_14 
REMARK    6  A    between atoms: C24_18  and  O26_19 
REMARK    7  A    between atoms: C34_26  and  O36_27 
ROOT
ATOM      1  C9  ZIN AC000       0.720  -0.466  -1.246  0.00  0.00     0.000 C 
ATOM      2  C11 ZIN AC000       0.699  -2.014  -1.272  0.00  0.00     0.006 C 
ATOM      3  C12 ZIN AC000       0.011  -2.421  -2.604  0.00  0.00     0.006 C 
ATOM      4  C13 ZIN AC000       0.241  -1.196  -3.497  0.00  0.00     0.003 C 
ATOM      5  C15 ZIN AC000      -0.718  -1.036  -4.661  0.00  0.00     0.024 C 
ATOM      6  C17 ZIN AC000      -0.575  -2.209  -5.633  0.00  0.00     0.123 C 
ATOM      7  C20 ZIN AC000      -1.519  -2.003  -6.820  0.00  0.00     0.037 C 
ATOM      8  C21 ZIN AC000      -1.159  -0.702  -7.539  0.00  0.00    -0.001 C 
ATOM      9  C23 ZIN AC000       0.281  -0.782  -8.048  0.00  0.00     0.037 C 
ATOM     10  C24 ZIN AC000       0.641   0.518  -8.769  0.00  0.00     0.118 C 
ATOM     11  C27 ZIN AC000       0.508   1.694  -7.799  0.00  0.00     0.032 C 
ATOM     12  C28 ZIN AC000      -0.933   1.774  -7.289  0.00  0.00     0.012 C 
ATOM     13  C29 ZIN AC000      -1.291   0.473  -6.567  0.00  0.00    -0.036 C 
ATOM     14  C30 ZIN AC000      -2.731   0.553  -6.057  0.00  0.00     0.016 C 
ATOM     15  C31 ZIN AC000      -0.359   0.279  -5.371  0.00  0.00     0.003 C 
ATOM     16  C33 ZIN AC000      -0.461   1.474  -4.430  0.00  0.00     0.038 C 
ATOM     17  C34 ZIN AC000       0.390   1.268  -3.166  0.00  0.00     0.127 C 
ATOM     18  C37 ZIN AC000      -0.023  -0.029  -2.505  0.00  0.00    -0.010 C 
ATOM     19  C38 ZIN AC000      -1.530  -0.016  -2.238  0.00  0.00     0.018 C 
ENDROOT
BRANCH   1  20
ATOM     20  C2  ZIN AC000       0.002   0.054   0.001  0.00  0.00    -0.013 C 
ATOM     21  C1  ZIN AC000      -0.025   1.583  -0.026  0.00  0.00     0.010 C 
BRANCH  20  22
ATOM     22  C4  ZIN AC000       0.745  -0.421   1.251  0.00  0.00     0.015 C 
BRANCH  22  23
ATOM     23  C5  ZIN AC000      -0.041  -0.009   2.498  0.00  0.00     0.113 C 
BRANCH  23  24
ATOM     24  C6  ZIN AC000       0.691  -0.477   3.730  0.00  0.00     0.172 C 
ATOM     25  O7  ZIN AC000       1.742  -1.084   3.621  0.00  0.00    -0.648 OA
ATOM     26  O8  ZIN AC000       0.231  -0.248   4.836  0.00  0.00    -0.648 OA
ENDBRANCH  23  24
ENDBRANCH  22  23
ENDBRANCH  20  22
ENDBRANCH   1  20
BRANCH  17  27
ATOM     27  O36 ZIN AC000       1.769   1.146  -3.523  0.00  0.00    -0.395 OA
ATOM     28  H65 ZIN AC000       2.126   1.920  -3.979  0.00  0.00     0.210 HD
ENDBRANCH  17  27
BRANCH   6  29
ATOM     29  O19 ZIN AC000       0.773  -2.278  -6.101  0.00  0.00    -0.395 OA
ATOM     30  H50 ZIN AC000       0.936  -3.001  -6.723  0.00  0.00     0.210 HD
ENDBRANCH   6  29
BRANCH  10  31
ATOM     31  O26 ZIN AC000       1.986   0.443  -9.245  0.00  0.00    -0.396 OA
ATOM     32  H55 ZIN AC000       2.282   1.235  -9.714  0.00  0.00     0.210 HD
ENDBRANCH  10  31
TORSDOF 7
