REMARK  4 active torsions:
REMARK  status: ('A' for Active; 'I' for Inactive)
REMARK    1  A    between atoms: C21_18  and  O23_19 
REMARK    2  A    between atoms: C27_23  and  C29_24 
REMARK    3  A    between atoms: C29_24  and  C31_26 
REMARK    4  A    between atoms: C31_26  and  O32_27 
ROOT
ATOM      1  C1  <0> d           0.191   1.954   0.404  0.00  0.00     0.011 C 
ATOM      2  C2  <0> d           0.235   0.435   0.228  0.00  0.00    -0.006 C 
ATOM      3  C4  <0> d          -1.205  -0.125   0.072  0.00  0.00     0.011 C 
ATOM      4  C5  <0> d          -1.565  -0.550   1.500  0.00  0.00     0.002 C 
ATOM      5  C7  <0> d          -2.668  -1.585   1.624  0.00  0.00     0.034 C 
ATOM      6  C9  <0> d          -3.979  -1.014   1.078  0.00  0.00     0.013 C 
ATOM      7  C10 <0> d          -5.080  -2.075   1.167  0.00  0.00     0.036 C 
ATOM      8  C11 <0> d          -5.166  -2.546   2.607  0.00  0.00    -0.061 A 
ATOM      9  C12 <0> d          -6.344  -2.547   3.214  0.00  0.00     0.058 A 
ATOM     10  C13 <0> d          -6.463  -2.977   4.616  0.00  0.00     0.172 A 
ATOM     11  O14 <0> d          -7.548  -3.017   5.165  0.00  0.00    -0.289 OA
ATOM     12  C15 <0> d          -5.239  -3.360   5.339  0.00  0.00     0.052 A 
ATOM     13  C16 <0> d          -4.074  -3.358   4.711  0.00  0.00    -0.006 A 
ATOM     14  C17 <0> d          -3.900  -2.994   3.277  0.00  0.00     0.036 A 
ATOM     15  C18 <0> d          -3.393  -4.233   2.537  0.00  0.00     0.028 C 
ATOM     16  C19 <0> d          -2.815  -1.926   3.115  0.00  0.00     0.147 C 
ATOM     17  F20 <0> d          -3.203  -0.769   3.799  0.00  0.00    -0.238 F 
ATOM     18  C21 <0> d          -1.512  -2.434   3.726  0.00  0.00     0.160 C 
ATOM     19  C24 <0> d          -0.351  -1.457   3.481  0.00  0.00     0.045 C 
ATOM     20  C25 <0> d          -0.241  -1.207   1.976  0.00  0.00    -0.027 C 
ATOM     21  C26 <0> d          -0.110  -2.540   1.237  0.00  0.00     0.016 C 
ATOM     22  C27 <0> d           0.829  -0.230   1.495  0.00  0.00     0.070 C 
ENDROOT
BRANCH  22  23
ATOM     23  C29 <0> d           2.083  -0.974   1.114  0.00  0.00     0.155 C 
ATOM     24  O30 <0> d           2.261  -1.309  -0.032  0.00  0.00    -0.295 OA
BRANCH  23  25
ATOM     25  C31 <0> d           3.113  -1.301   2.164  0.00  0.00     0.242 C 
BRANCH  25  26
ATOM     26  O32 <0> d           4.201  -2.004   1.561  0.00  0.00    -0.394 OA
ATOM     27  H56 <0> d           4.904  -2.247   2.180  0.00  0.00     0.209 HD
ENDBRANCH  25  26
ENDBRANCH  23  25
ENDBRANCH  22  23
BRANCH  18  28
ATOM     28  O23 <0> d          -1.187  -3.698   3.146  0.00  0.00    -0.392 OA
ATOM     29  H48 <0> d          -0.368  -4.087   3.484  0.00  0.00     0.210 HD
ENDBRANCH  18  28
TORSDOF 4
