REMARK  4 active torsions:
REMARK  status: ('A' for Active; 'I' for Inactive)
REMARK    1  A    between atoms: C26_22  and  O28_23 
REMARK    2  A    between atoms: C32_27  and  C33_28 
REMARK    3  A    between atoms: C33_28  and  C35_30 
REMARK    4  A    between atoms: C35_30  and  O36_31 
ROOT
ATOM      1  C1  RES d   1       0.265   1.681   1.929  0.00  0.00     0.078 C 
ATOM      2  C2  RES d   1       0.129   0.179   1.671  0.00  0.00     0.159 C 
ATOM      3  C3  RES d   1      -1.326  -0.262   1.844  0.00  0.00     0.078 C 
ATOM      4  O4  RES d   1       0.602  -0.149   0.348  0.00  0.00    -0.347 OA
ATOM      5  C5  RES d   1       2.039  -0.190   0.465  0.00  0.00     0.168 C 
ATOM      6  C7  RES d   1       2.546  -1.446  -0.295  0.00  0.00     0.041 C 
ATOM      7  C8  RES d   1       2.483  -2.546   0.770  0.00  0.00     0.007 C 
ATOM      8  C10 RES d   1       3.370  -3.753   0.523  0.00  0.00     0.037 C 
ATOM      9  C12 RES d   1       2.932  -4.466  -0.758  0.00  0.00     0.050 C 
ATOM     10  C13 RES d   1       3.852  -5.662  -1.024  0.00  0.00     0.201 C 
ATOM     11  F15 RES d   1       3.383  -6.381  -2.128  0.00  0.00    -0.245 F 
ATOM     12  C16 RES d   1       3.842  -6.547   0.208  0.00  0.00    -0.027 A 
ATOM     13  C17 RES d   1       3.588  -7.841   0.068  0.00  0.00     0.061 A 
ATOM     14  C18 RES d   1       3.549  -8.727   1.241  0.00  0.00     0.172 A 
ATOM     15  O19 RES d   1       3.355  -9.921   1.113  0.00  0.00    -0.289 OA
ATOM     16  C20 RES d   1       3.751  -8.136   2.575  0.00  0.00     0.052 A 
ATOM     17  C21 RES d   1       4.010  -6.843   2.691  0.00  0.00    -0.006 A 
ATOM     18  C22 RES d   1       4.125  -5.908   1.535  0.00  0.00     0.039 A 
ATOM     19  C23 RES d   1       5.559  -5.378   1.503  0.00  0.00     0.028 C 
ATOM     20  C24 RES d   1       3.222  -4.688   1.734  0.00  0.00     0.147 C 
ATOM     21  F25 RES d   1       1.889  -5.109   1.807  0.00  0.00    -0.238 F 
ATOM     22  C26 RES d   1       3.583  -4.000   3.046  0.00  0.00     0.160 C 
ATOM     23  C29 RES d   1       2.792  -2.697   3.240  0.00  0.00     0.048 C 
ATOM     24  C30 RES d   1       3.025  -1.804   2.021  0.00  0.00     0.004 C 
ATOM     25  C31 RES d   1       4.526  -1.601   1.806  0.00  0.00     0.019 C 
ATOM     26  C32 RES d   1       2.302  -0.449   1.978  0.00  0.00     0.160 C 
ATOM     27  O37 RES d   1       0.990  -0.565   2.560  0.00  0.00    -0.334 OA
ENDROOT
BRANCH  26  28
ATOM     28  C33 RES d   1       3.140   0.652   2.576  0.00  0.00     0.188 C 
ATOM     29  O34 RES d   1       3.869   1.307   1.871  0.00  0.00    -0.292 OA
BRANCH  28  30
ATOM     30  C35 RES d   1       3.067   0.936   4.054  0.00  0.00     0.245 C 
BRANCH  30  31
ATOM     31  O36 RES d   1       3.854   2.090   4.357  0.00  0.00    -0.393 OA
ATOM     32  H62 RES d   1       3.853   2.332   5.294  0.00  0.00     0.209 HD
ENDBRANCH  30  31
ENDBRANCH  28  30
ENDBRANCH  26  28
BRANCH  22  33
ATOM     33  O28 RES d   1       4.981  -3.700   3.046  0.00  0.00    -0.392 OA
ATOM     34  H54 RES d   1       5.288  -3.260   3.850  0.00  0.00     0.210 HD
ENDBRANCH  22  33
TORSDOF 4
