REMARK  2 active torsions:
REMARK  status: ('A' for Active; 'I' for Inactive)
REMARK    1  A    between atoms: O1_1  and  C2_2 
REMARK    2  A    between atoms: C2_2  and  C3_3 
ROOT
ATOM      1  C3  ZIN AC000      -1.412  -0.526   0.013  0.00  0.00    -0.035 A 
ATOM      2  C4  ZIN AC000      -2.051  -0.766   1.215  0.00  0.00     0.009 A 
ATOM      3  C5  ZIN AC000      -3.348  -1.244   1.225  0.00  0.00     0.001 A 
ATOM      4  C6  ZIN AC000      -4.006  -1.482   0.032  0.00  0.00     0.000 A 
ATOM      5  C7  ZIN AC000      -3.367  -1.241  -1.170  0.00  0.00     0.001 A 
ATOM      6  C8  ZIN AC000      -2.072  -0.758  -1.179  0.00  0.00     0.009 A 
ENDROOT
BRANCH   1   7
ATOM      7  C2  ZIN AC000       0.002  -0.004   0.002  0.00  0.00     0.202 C 
BRANCH   7   8
ATOM      8  O1  ZIN AC000      -0.017   1.425   0.010  0.00  0.00    -0.396 OA
ATOM      9  H9  ZIN AC000       0.861   1.830   0.004  0.00  0.00     0.209 HD
ENDBRANCH   7   8
ENDBRANCH   1   7
TORSDOF 2
