REMARK  15 active torsions:
REMARK  status: ('A' for Active; 'I' for Inactive)
REMARK    1  A    between atoms: C2_2  and  C3_3 
REMARK    2  A    between atoms: C4_4  and  C5_5 
REMARK    3  A    between atoms: C5_5  and  C6_6 
REMARK    4  A    between atoms: C7_7  and  C8_8 
REMARK    5  A    between atoms: C8_8  and  C9_9 
REMARK    6  A    between atoms: C10_10  and  C11_11 
REMARK    7  A    between atoms: C11_11  and  C12_12 
REMARK    8  A    between atoms: C13_13  and  C14_14 
REMARK    9  A    between atoms: C14_14  and  C15_15 
REMARK   10  A    between atoms: C16_16  and  C17_17 
REMARK   11  A    between atoms: C17_17  and  C18_18 
REMARK   12  A    between atoms: C18_18  and  C19_19 
REMARK   13  A    between atoms: C19_19  and  C20_20 
REMARK   14  A    between atoms: C20_20  and  O22_22 
REMARK   15  A    between atoms: O22_22  and  C23_23 
ROOT
ATOM      1  C12 <0> d          -2.732  -2.198  -8.573  0.00  0.00    -0.027 C 
ATOM      2  C13 <0> d          -3.771  -2.377  -9.351  0.00  0.00    -0.027 C 
ENDROOT
BRANCH   1   3
ATOM      3  C11 <0> d          -2.549  -3.060  -7.351  0.00  0.00     0.053 C 
BRANCH   3   4
ATOM      4  C10 <0> d          -1.179  -3.687  -7.379  0.00  0.00    -0.027 C 
ATOM      5  C9  <0> d          -0.380  -3.562  -6.348  0.00  0.00    -0.027 C 
BRANCH   5   6
ATOM      6  C8  <0> d          -0.889  -2.944  -5.071  0.00  0.00     0.053 C 
BRANCH   6   7
ATOM      7  C7  <0> d          -0.608  -3.871  -3.917  0.00  0.00    -0.027 C 
ATOM      8  C6  <0> d           0.036  -3.431  -2.865  0.00  0.00    -0.027 C 
BRANCH   8   9
ATOM      9  C5  <0> d           0.355  -1.964  -2.736  0.00  0.00     0.053 C 
BRANCH   9  10
ATOM     10  C4  <0> d          -0.128  -1.461  -1.400  0.00  0.00    -0.027 C 
ATOM     11  C3  <0> d           0.698  -0.832  -0.600  0.00  0.00    -0.031 C 
BRANCH  11  12
ATOM     12  C2  <0> d           2.080  -0.470  -1.077  0.00  0.00     0.022 C 
ATOM     13  C1  <0> d           2.330   1.020  -0.833  0.00  0.00     0.009 C 
ENDBRANCH  11  12
ENDBRANCH   9  10
ENDBRANCH   8   9
ENDBRANCH   6   7
ENDBRANCH   5   6
ENDBRANCH   3   4
ENDBRANCH   1   3
BRANCH   2  14
ATOM     14  C14 <0> d          -4.863  -3.331  -8.943  0.00  0.00     0.053 C 
BRANCH  14  15
ATOM     15  C15 <0> d          -6.196  -2.632  -9.018  0.00  0.00    -0.027 C 
ATOM     16  C16 <0> d          -7.155  -3.128  -9.760  0.00  0.00    -0.030 C 
BRANCH  16  17
ATOM     17  C17 <0> d          -6.874  -4.292 -10.675  0.00  0.00     0.027 C 
BRANCH  17  18
ATOM     18  C18 <0> d          -7.760  -5.476 -10.280  0.00  0.00     0.013 C 
BRANCH  18  19
ATOM     19  C19 <0> d          -7.475  -6.658 -11.209  0.00  0.00     0.111 C 
BRANCH  19  20
ATOM     20  C20 <0> d          -8.347  -7.824 -10.820  0.00  0.00     0.258 C 
ATOM     21  O21 <0> d          -9.117  -7.720  -9.895  0.00  0.00    -0.265 OA
BRANCH  20  22
ATOM     22  O22 <0> d          -8.268  -8.978 -11.502  0.00  0.00    -0.322 OA
BRANCH  22  23
ATOM     23  C23 <0> d          -9.137 -10.058 -11.072  0.00  0.00     0.174 C 
ATOM     24  C24 <0> d          -8.907 -11.282 -11.960  0.00  0.00     0.034 C 
ENDBRANCH  22  23
ENDBRANCH  20  22
ENDBRANCH  19  20
ENDBRANCH  18  19
ENDBRANCH  17  18
ENDBRANCH  16  17
ENDBRANCH  14  15
ENDBRANCH   2  14
TORSDOF 15
