REMARK  2 active torsions:
REMARK  status: ('A' for Active; 'I' for Inactive)
REMARK    1  A    between atoms: C3_3  and  O4_4 
REMARK    2  A    between atoms: C25_21  and  C26_22 
ROOT
ATOM      1  C1  ZIN AC000      -0.251  -0.665  -1.890  0.00  0.00     0.015 C 
ATOM      2  C2  ZIN AC000      -0.171   0.411  -1.428  0.00  0.00    -0.078 C 
ATOM      3  C3  ZIN AC000      -0.072   1.761  -0.850  0.00  0.00     0.128 C 
ATOM      4  C5  ZIN AC000      -0.042   2.824  -1.973  0.00  0.00     0.052 C 
ATOM      5  C6  ZIN AC000       1.282   3.611  -1.798  0.00  0.00     0.010 C 
ATOM      6  C7  ZIN AC000       1.623   3.405  -0.315  0.00  0.00     0.002 C 
ATOM      7  C9  ZIN AC000       3.080   3.603   0.031  0.00  0.00    -0.005 C 
ATOM      8  C11 ZIN AC000       4.011   3.539  -1.175  0.00  0.00     0.010 C 
ATOM      9  C12 ZIN AC000       5.427   3.897  -0.706  0.00  0.00     0.035 C 
ATOM     10  C13 ZIN AC000       5.818   3.025   0.472  0.00  0.00    -0.072 C 
ATOM     11  C14 ZIN AC000       7.021   2.453   0.446  0.00  0.00     0.053 C 
ATOM     12  C15 ZIN AC000       7.463   1.610   1.561  0.00  0.00     0.149 C 
ATOM     13  O16 ZIN AC000       8.346   0.788   1.429  0.00  0.00    -0.293 OA
ATOM     14  C17 ZIN AC000       6.760   1.819   2.888  0.00  0.00     0.084 C 
ATOM     15  C18 ZIN AC000       5.257   1.794   2.615  0.00  0.00     0.017 C 
ATOM     16  C19 ZIN AC000       4.847   2.855   1.610  0.00  0.00     0.019 C 
ATOM     17  C21 ZIN AC000       3.494   2.477   0.994  0.00  0.00    -0.002 C 
ATOM     18  C23 ZIN AC000       2.399   2.305   2.041  0.00  0.00     0.006 C 
ATOM     19  C24 ZIN AC000       1.194   1.619   1.365  0.00  0.00     0.014 C 
ATOM     20  C25 ZIN AC000       1.251   1.918  -0.099  0.00  0.00     0.006 C 
ENDROOT
BRANCH   3  21
ATOM     21  O4  ZIN AC000      -1.171   2.002   0.031  0.00  0.00    -0.377 OA
ATOM     22  H29 ZIN AC000      -2.037   1.934  -0.393  0.00  0.00     0.211 HD
ENDBRANCH   3  21
BRANCH  20  23
ATOM     23  C26 ZIN AC000       2.333   1.059  -0.758  0.00  0.00     0.009 C 
ATOM     24  C27 ZIN AC000       2.577  -0.191   0.090  0.00  0.00     0.006 C 
ENDBRANCH  20  23
TORSDOF 2
