REMARK  10 active torsions:
REMARK  status: ('A' for Active; 'I' for Inactive)
REMARK    1  A    between atoms: C2_2  and  O3_3 
REMARK    2  A    between atoms: O3_3  and  C4_4 
REMARK    3  A    between atoms: C4_4  and  C6_6 
REMARK    4  A    between atoms: C6_6  and  C8_7 
REMARK    5  A    between atoms: C6_6  and  N16_15 
REMARK    6  A    between atoms: C8_7  and  C9_8 
REMARK    7  A    between atoms: C9_8  and  C10_9 
REMARK    8  A    between atoms: N16_15  and  C17_16 
REMARK    9  A    between atoms: C17_16  and  C20_18 
REMARK       I    between atoms: C20_18  and  N22_20 
REMARK   10  A    between atoms: C23_21  and  C25_22 
ROOT
ATOM      1  N16 ZIN AC000      -3.400  -3.655  -0.344  0.00  0.00     0.111 N 
ATOM      2  H51 ZIN AC000      -3.147  -3.913   0.598  0.00  0.00     0.318 HD
ENDROOT
BRANCH   1   3
ATOM      3  C6  ZIN AC000      -3.258  -2.208  -0.551  0.00  0.00     0.320 C 
BRANCH   3   4
ATOM      4  C4  ZIN AC000      -2.025  -1.717   0.163  0.00  0.00     0.292 C 
ATOM      5  O5  ZIN AC000      -1.336  -2.494   0.781  0.00  0.00    -0.263 OA
BRANCH   4   6
ATOM      6  O3  ZIN AC000      -1.692  -0.418   0.113  0.00  0.00    -0.320 OA
BRANCH   6   7
ATOM      7  C2  ZIN AC000      -0.492  -0.017   0.824  0.00  0.00     0.174 C 
ATOM      8  C1  ZIN AC000      -0.277   1.488   0.653  0.00  0.00     0.034 C 
ENDBRANCH   6   7
ENDBRANCH   4   6
ENDBRANCH   3   4
BRANCH   3   9
ATOM      9  C8  ZIN AC000      -4.489  -1.490   0.004  0.00  0.00     0.051 C 
BRANCH   9  10
ATOM     10  C9  ZIN AC000      -5.724  -1.894  -0.804  0.00  0.00     0.041 C 
BRANCH  10  11
ATOM     11  C10 ZIN AC000      -6.936  -1.187  -0.257  0.00  0.00    -0.058 A 
ATOM     12  C15 ZIN AC000      -7.300   0.050  -0.757  0.00  0.00     0.007 A 
ATOM     13  C14 ZIN AC000      -8.415   0.697  -0.258  0.00  0.00     0.001 A 
ATOM     14  C13 ZIN AC000      -9.161   0.112   0.748  0.00  0.00     0.000 A 
ATOM     15  C12 ZIN AC000      -8.795  -1.122   1.252  0.00  0.00     0.001 A 
ATOM     16  C11 ZIN AC000      -7.682  -1.771   0.750  0.00  0.00     0.007 A 
ENDBRANCH  10  11
ENDBRANCH   9  10
ENDBRANCH   3   9
ENDBRANCH   1   3
BRANCH   1  17
ATOM     17  C17 ZIN AC000      -2.608  -4.408  -1.326  0.00  0.00     0.308 C 
ATOM     18  C19 ZIN AC000      -1.170  -4.544  -0.825  0.00  0.00     0.053 C 
BRANCH  17  19
ATOM     19  C20 ZIN AC000      -3.208  -5.778  -1.511  0.00  0.00     0.254 C 
ATOM     20  O21 ZIN AC000      -3.814  -6.303  -0.601  0.00  0.00    -0.271 OA
ATOM     21  N22 ZIN AC000      -3.071  -6.421  -2.688  0.00  0.00    -0.330 N 
ATOM     22  C35 ZIN AC000      -3.630  -7.718  -3.034  0.00  0.00     0.092 C 
ATOM     23  C23 ZIN AC000      -2.318  -5.941  -3.871  0.00  0.00     0.189 C 
ATOM     24  C29 ZIN AC000      -3.878  -7.623  -4.567  0.00  0.00     0.011 C 
ATOM     25  C34 ZIN AC000      -4.933  -8.133  -2.386  0.00  0.00     0.026 C 
ATOM     26  C28 ZIN AC000      -2.563  -6.965  -5.013  0.00  0.00     0.043 C 
ATOM     27  C31 ZIN AC000      -4.100  -9.037  -5.078  0.00  0.00     0.007 C 
ATOM     28  C32 ZIN AC000      -5.388  -9.562  -4.424  0.00  0.00     0.001 C 
ATOM     29  C33 ZIN AC000      -5.293  -9.536  -2.901  0.00  0.00     0.002 C 
BRANCH  23  30
ATOM     30  C25 ZIN AC000      -2.818  -4.579  -4.280  0.00  0.00     0.197 C 
ATOM     31  O26 ZIN AC000      -2.209  -3.932  -5.115  0.00  0.00    -0.646 OA
ATOM     32  O27 ZIN AC000      -3.831  -4.125  -3.776  0.00  0.00    -0.646 OA
ENDBRANCH  23  30
ENDBRANCH  17  19
ENDBRANCH   1  17
TORSDOF 10
