REMARK  6 active torsions:
REMARK  status: ('A' for Active; 'I' for Inactive)
REMARK    1  A    between atoms: O2_2  and  N3_3 
REMARK    2  A    between atoms: N6_6  and  C7_7 
REMARK    3  A    between atoms: C16_16  and  C17_17 
REMARK    4  A    between atoms: N21_21  and  C22_22 
REMARK    5  A    between atoms: C26_26  and  C28_27 
REMARK    6  A    between atoms: C28_27  and  N29_28 
ROOT
ATOM      1  C7  <0> d          -0.770  -5.188  -0.834  0.00  0.00     0.167 A 
ATOM      2  N8  <0> d          -0.709  -6.256  -1.610  0.00  0.00    -0.209 NA
ATOM      3  C9  <0> d          -1.566  -7.262  -1.478  0.00  0.00     0.146 A 
ATOM      4  C10 <0> d          -2.566  -7.197  -0.493  0.00  0.00     0.064 A 
ATOM      5  C11 <0> d          -2.652  -6.076   0.341  0.00  0.00     0.065 A 
ATOM      6  C12 <0> d          -1.740  -5.069   0.167  0.00  0.00     0.163 A 
ATOM      7  F13 <0> d          -1.783  -3.967   0.948  0.00  0.00    -0.202 F 
ATOM      8  C14 <0> d          -3.507  -8.320  -0.361  0.00  0.00     0.204 A 
ATOM      9  O15 <0> d          -4.392  -8.313   0.477  0.00  0.00    -0.286 OA
ATOM     10  C16 <0> d          -3.334  -9.454  -1.286  0.00  0.00     0.107 A 
ATOM     11  C20 <0> d          -2.312  -9.404  -2.215  0.00  0.00     0.115 A 
ATOM     12  N21 <0> d          -1.477  -8.361  -2.301  0.00  0.00    -0.335 N 
ENDROOT
BRANCH   1  13
ATOM     13  N6  <0> d           0.148  -4.166  -1.013  0.00  0.00    -0.357 N 
ATOM     14  C5  <0> d           0.237  -2.912  -0.246  0.00  0.00     0.182 C 
ATOM     15  C4  <0> d           0.783  -1.864  -1.193  0.00  0.00     0.064 C 
ATOM     16  N3  <0> d           0.711  -0.594  -1.059  0.00  0.00    -0.141 NA
ATOM     17  C26 <0> d           1.427  -2.624  -2.337  0.00  0.00     0.081 C 
ATOM     18  C25 <0> d           1.233  -4.114  -2.009  0.00  0.00     0.137 C 
BRANCH  16  19
ATOM     19  O2  <0> d           0.072  -0.037   0.075  0.00  0.00    -0.262 OA
ATOM     20  C1  <0> d           0.065   1.391   0.096  0.00  0.00     0.240 C 
ENDBRANCH  16  19
BRANCH  17  21
ATOM     21  C28 <0> d           2.918  -2.289  -2.412  0.00  0.00     0.241 C 
BRANCH  21  22
ATOM     22  N29 <0> d           3.087  -0.895  -2.842  0.00  0.00    -0.079 N 
ATOM     23  H30 <0> d           2.668  -0.771  -3.751  0.00  0.00     0.274 HD
ATOM     24  H31 <0> d           2.637  -0.281  -2.178  0.00  0.00     0.274 HD
ATOM     25  H32 <0> d           4.070  -0.674  -2.891  0.00  0.00     0.274 HD
ENDBRANCH  21  22
ENDBRANCH  17  21
ENDBRANCH   1  13
BRANCH  12  26
ATOM     26  C22 <0> d          -0.422  -8.392  -3.317  0.00  0.00     0.091 A 
ATOM     27  C24 <0> d          -0.845  -8.634  -4.768  0.00  0.00     0.028 A 
ATOM     28  C23 <0> d          -0.125  -9.736  -3.986  0.00  0.00     0.028 A 
ENDBRANCH  12  26
BRANCH  10  29
ATOM     29  C17 <0> d          -4.229 -10.614  -1.222  0.00  0.00     0.214 C 
ATOM     30  O18 <0> d          -4.075 -11.550  -1.996  0.00  0.00    -0.644 OA
ATOM     31  O19 <0> d          -5.131 -10.647  -0.395  0.00  0.00    -0.644 OA
ENDBRANCH  10  29
TORSDOF 6
