REMARK  9 active torsions:
REMARK  status: ('A' for Active; 'I' for Inactive)
REMARK    1  A    between atoms: O1_1  and  C2_2 
REMARK    2  A    between atoms: C2_2  and  C3_3 
REMARK    3  A    between atoms: C3_3  and  N4_4 
REMARK    4  A    between atoms: N4_4  and  C5_5 
REMARK    5  A    between atoms: N4_4  and  C8_8 
REMARK    6  A    between atoms: C5_5  and  C6_6 
REMARK    7  A    between atoms: C6_6  and  O7_7 
REMARK    8  A    between atoms: C8_8  and  C9_9 
REMARK    9  A    between atoms: C9_9  and  O10_10 
ROOT
ATOM      1  N4  ZIN AC000      -1.807  -0.175  -1.335  0.00  0.00     0.094 N 
ENDROOT
BRANCH   1   2
ATOM      2  C3  ZIN AC000      -1.260  -0.640  -0.053  0.00  0.00     0.298 C 
BRANCH   2   3
ATOM      3  C2  ZIN AC000      -2.251  -0.324   1.068  0.00  0.00     0.194 C 
BRANCH   3   4
ATOM      4  O1  ZIN AC000      -3.357  -1.226   0.996  0.00  0.00    -0.399 OA
ATOM      5  H11 ZIN AC000      -3.988  -1.134   1.722  0.00  0.00     0.209 HD
ENDBRANCH   3   4
ENDBRANCH   2   3
ENDBRANCH   1   2
BRANCH   1   6
ATOM      6  C5  ZIN AC000      -3.095  -0.819  -1.622  0.00  0.00     0.298 C 
BRANCH   6   7
ATOM      7  C6  ZIN AC000      -2.864  -2.289  -1.976  0.00  0.00     0.194 C 
BRANCH   7   8
ATOM      8  O7  ZIN AC000      -2.411  -2.992  -0.818  0.00  0.00    -0.399 OA
ATOM      9  H20 ZIN AC000      -2.243  -3.933  -0.969  0.00  0.00     0.209 HD
ENDBRANCH   7   8
ENDBRANCH   6   7
ENDBRANCH   1   6
BRANCH   1  10
ATOM     10  C8  ZIN AC000      -1.933   1.288  -1.354  0.00  0.00     0.298 C 
BRANCH  10  11
ATOM     11  C9  ZIN AC000      -0.544   1.919  -1.467  0.00  0.00     0.194 C 
BRANCH  11  12
ATOM     12  O10 ZIN AC000       0.040   1.562  -2.722  0.00  0.00    -0.399 OA
ATOM     13  H25 ZIN AC000       0.924   1.928  -2.862  0.00  0.00     0.209 HD
ENDBRANCH  11  12
ENDBRANCH  10  11
ENDBRANCH   1  10
TORSDOF 9
