REMARK  5 active torsions:
REMARK  status: ('A' for Active; 'I' for Inactive)
REMARK    1  A    between atoms: N1_1  and  C5_5 
REMARK    2  A    between atoms: C5_5  and  C6_6 
REMARK    3  A    between atoms: C6_6  and  C8_7 
REMARK    4  A    between atoms: C6_6  and  C12_11 
REMARK    5  A    between atoms: C8_7  and  C9_8 
ROOT
ATOM      1  C6  ZIN AC000       0.041   0.972   2.456  0.00  0.00     0.054 C 
ENDROOT
BRANCH   1   2
ATOM      2  C5  ZIN AC000      -0.699   1.479   1.216  0.00  0.00     0.239 C 
BRANCH   2   3
ATOM      3  N1  ZIN AC000      -0.012   1.005   0.008  0.00  0.00    -0.079 N 
ATOM      4  H2  ZIN AC000       0.002  -0.004   0.002  0.00  0.00     0.274 HD
ATOM      5  H3  ZIN AC000       0.935   1.354   0.000  0.00  0.00     0.274 HD
ATOM      6  H4  ZIN AC000      -0.500   1.339  -0.810  0.00  0.00     0.274 HD
ENDBRANCH   2   3
ENDBRANCH   1   2
BRANCH   1   7
ATOM      7  C8  ZIN AC000      -0.743   1.359   3.711  0.00  0.00     0.124 C 
BRANCH   7   8
ATOM      8  C9  ZIN AC000      -2.068   0.642   3.717  0.00  0.00     0.173 C 
ATOM      9  O10 ZIN AC000      -2.359  -0.109   2.802  0.00  0.00    -0.648 OA
ATOM     10  O11 ZIN AC000      -2.850   0.813   4.638  0.00  0.00    -0.648 OA
ENDBRANCH   7   8
ENDBRANCH   1   7
BRANCH   1  11
ATOM     11  C12 ZIN AC000       1.414   1.591   2.509  0.00  0.00    -0.052 A 
ATOM     12  C18 ZIN AC000       2.537   0.785   2.490  0.00  0.00     0.009 A 
ATOM     13  C17 ZIN AC000       3.796   1.353   2.534  0.00  0.00     0.024 A 
ATOM     14  C15 ZIN AC000       3.933   2.727   2.608  0.00  0.00     0.034 A 
ATOM     15  C14 ZIN AC000       2.808   3.533   2.633  0.00  0.00     0.024 A 
ATOM     16 Cl16 ZIN AC000       5.514   3.441   2.670  0.00  0.00    -0.084 Cl
ATOM     17  C13 ZIN AC000       1.550   2.965   2.583  0.00  0.00     0.009 A 
ENDBRANCH   1  11
TORSDOF 5
