REMARK  4 active torsions:
REMARK  status: ('A' for Active; 'I' for Inactive)
REMARK    1  A    between atoms: N2_2  and  C5_5 
REMARK    2  A    between atoms: C5_5  and  C6_6 
REMARK    3  A    between atoms: C6_6  and  C7_7 
REMARK    4  A    between atoms: C7_7  and  N8_8 
ROOT
ATOM      1  N8  <0> d          -2.770  -4.031  -0.119  0.00  0.00    -0.346 N 
ATOM      2  C9  <0> d          -2.730  -4.683  -1.345  0.00  0.00     0.041 A 
ATOM      3  C10 <0> d          -1.831  -4.166  -2.285  0.00  0.00     0.030 A 
ATOM      4  C11 <0> d          -1.687  -4.752  -3.522  0.00  0.00     0.002 A 
ATOM      5  C12 <0> d          -2.441  -5.869  -3.833  0.00  0.00     0.001 A 
ATOM      6  C13 <0> d          -3.333  -6.372  -2.915  0.00  0.00     0.009 A 
ATOM      7  C14 <0> d          -3.503  -5.778  -1.661  0.00  0.00    -0.031 A 
ATOM      8  C15 <0> d          -4.572  -6.416  -0.810  0.00  0.00     0.045 C 
ATOM      9  C16 <0> d          -4.993  -5.597   0.385  0.00  0.00     0.045 C 
ATOM     10  C17 <0> d          -3.893  -5.456   1.394  0.00  0.00    -0.031 A 
ATOM     11  C18 <0> d          -3.988  -6.093   2.620  0.00  0.00     0.011 A 
ATOM     12  C19 <0> d          -2.957  -5.971   3.535  0.00  0.00     0.024 A 
ATOM     13  C20 <0> d          -1.835  -5.220   3.230  0.00  0.00     0.036 A 
ATOM     14 Cl21 <0> d          -0.542  -5.084   4.381  0.00  0.00    -0.084 Cl
ATOM     15  C22 <0> d          -1.744  -4.578   2.007  0.00  0.00     0.054 A 
ATOM     16  C23 <0> d          -2.784  -4.699   1.101  0.00  0.00     0.042 A 
ENDROOT
BRANCH   1  17
ATOM     17  C7  <0> d          -2.794  -2.566  -0.111  0.00  0.00     0.131 C 
BRANCH  17  18
ATOM     18  C6  <0> d          -4.240  -2.080  -0.004  0.00  0.00     0.048 C 
BRANCH  18  19
ATOM     19  C5  <0> d          -4.258  -0.555   0.118  0.00  0.00     0.235 C 
BRANCH  19  20
ATOM     20  N2  <0> d          -5.647  -0.088   0.221  0.00  0.00    -0.079 N 
ATOM     21  C1  <0> d          -5.660   1.362   0.457  0.00  0.00     0.269 C 
ATOM     22  H3  <0> d          -6.104  -0.558   0.988  0.00  0.00     0.278 HD
ATOM     23  C4  <0> d          -6.358  -0.386  -1.030  0.00  0.00     0.269 C 
ENDBRANCH  19  20
ENDBRANCH  18  19
ENDBRANCH  17  18
ENDBRANCH   1  17
TORSDOF 4
