REMARK  16 active torsions:
REMARK  status: ('A' for Active; 'I' for Inactive)
REMARK    1  A    between atoms: C2_2  and  C3_3 
REMARK    2  A    between atoms: C3_3  and  C4_4 
REMARK    3  A    between atoms: C4_4  and  C5_5 
REMARK    4  A    between atoms: C5_5  and  O7_7 
REMARK    5  A    between atoms: C5_5  and  C8_8 
REMARK    6  A    between atoms: C8_8  and  C9_9 
REMARK    7  A    between atoms: C10_10  and  C11_11 
REMARK    8  A    between atoms: C13_12  and  O15_13 
REMARK    9  A    between atoms: C19_17  and  C21_18 
REMARK   10  A    between atoms: C21_18  and  C22_19 
REMARK   11  A    between atoms: C22_19  and  C23_20 
REMARK   12  A    between atoms: C23_20  and  C24_21 
REMARK   13  A    between atoms: C24_21  and  C25_22 
REMARK   14  A    between atoms: C25_22  and  C26_23 
REMARK   15  A    between atoms: C26_23  and  C27_24 
REMARK   16  A    between atoms: C27_24  and  O29_26 
ROOT
ATOM      1  C11 <0> d           2.545  -5.986   5.603  0.00  0.00     0.048 C 
ATOM      2  C13 <0> d           1.675  -5.797   6.872  0.00  0.00     0.133 C 
ATOM      3  C16 <0> d           2.245  -6.874   7.827  0.00  0.00     0.111 C 
ATOM      4  C17 <0> d           2.555  -8.056   6.925  0.00  0.00     0.134 C 
ATOM      5  O18 <0> d           2.630  -9.213   7.261  0.00  0.00    -0.297 OA
ATOM      6  C19 <0> d           2.755  -7.513   5.522  0.00  0.00     0.065 C 
ENDROOT
BRANCH   1   7
ATOM      7  C10 <0> d           1.816  -5.487   4.382  0.00  0.00    -0.023 C 
ATOM      8  C9  <0> d           2.361  -4.570   3.623  0.00  0.00    -0.027 C 
BRANCH   8   9
ATOM      9  C8  <0> d           1.633  -4.070   2.402  0.00  0.00     0.064 C 
BRANCH   9  10
ATOM     10  C5  <0> d           1.503  -2.548   2.473  0.00  0.00     0.057 C 
ATOM     11  C6  <0> d           2.897  -1.919   2.527  0.00  0.00     0.046 C 
BRANCH  10  12
ATOM     12  C4  <0> d           0.763  -2.041   1.233  0.00  0.00     0.038 C 
BRANCH  12  13
ATOM     13  C3  <0> d           0.742  -0.511   1.242  0.00  0.00     0.002 C 
BRANCH  13  14
ATOM     14  C2  <0> d           0.002  -0.004   0.002  0.00  0.00    -0.004 C 
ATOM     15  C1  <0> d          -0.019   1.526   0.010  0.00  0.00     0.005 C 
ENDBRANCH  13  14
ENDBRANCH  12  13
ENDBRANCH  10  12
BRANCH  10  16
ATOM     16  O7  <0> d           0.771  -2.186   3.646  0.00  0.00    -0.390 OA
ATOM     17  H43 <0> d          -0.124  -2.550   3.679  0.00  0.00     0.210 HD
ENDBRANCH  10  16
ENDBRANCH   9  10
ENDBRANCH   8   9
ENDBRANCH   1   7
BRANCH   6  18
ATOM     18  C21 <0> d           4.171  -7.827   5.037  0.00  0.00     0.013 C 
BRANCH  18  19
ATOM     19  C22 <0> d           4.329  -9.340   4.872  0.00  0.00     0.001 C 
BRANCH  19  20
ATOM     20  C23 <0> d           5.746  -9.655   4.386  0.00  0.00     0.000 C 
BRANCH  20  21
ATOM     21  C24 <0> d           5.904 -11.167   4.221  0.00  0.00     0.000 C 
BRANCH  21  22
ATOM     22  C25 <0> d           7.321 -11.482   3.735  0.00  0.00     0.010 C 
BRANCH  22  23
ATOM     23  C26 <0> d           7.479 -12.995   3.570  0.00  0.00     0.111 C 
BRANCH  23  24
ATOM     24  C27 <0> d           8.874 -13.304   3.091  0.00  0.00     0.258 C 
ATOM     25  O28 <0> d           9.661 -12.407   2.903  0.00  0.00    -0.265 OA
BRANCH  24  26
ATOM     26  O29 <0> d           9.242 -14.577   2.876  0.00  0.00    -0.326 OA
ATOM     27  C30 <0> d          10.601 -14.801   2.416  0.00  0.00     0.213 C 
ENDBRANCH  24  26
ENDBRANCH  23  24
ENDBRANCH  22  23
ENDBRANCH  21  22
ENDBRANCH  20  21
ENDBRANCH  19  20
ENDBRANCH  18  19
ENDBRANCH   6  18
BRANCH   2  28
ATOM     28  O15 <0> d           1.848  -4.487   7.415  0.00  0.00    -0.394 OA
ATOM     29  H48 <0> d           1.324  -4.319   8.211  0.00  0.00     0.210 HD
ENDBRANCH   2  28
TORSDOF 16
