REMARK  4 active torsions:
REMARK  status: ('A' for Active; 'I' for Inactive)
REMARK    1  A    between atoms: O2_2  and  C3_3 
REMARK    2  A    between atoms: C6_6  and  C7_7 
REMARK    3  A    between atoms: C7_7  and  C9_9 
REMARK    4  A    between atoms: C15_15  and  O16_16 
ROOT
ATOM      1  C3  ZIN AC000       0.612  -0.641   1.034  0.00  0.00     0.070 A 
ATOM      2  C4  ZIN AC000       1.291   0.126   1.976  0.00  0.00     0.038 A 
ATOM      3  C5  ZIN AC000       1.925  -0.472   3.026  0.00  0.00     0.021 A 
ATOM      4  C6  ZIN AC000       1.895  -1.864   3.163  0.00  0.00     0.048 A 
ATOM      5  C15 ZIN AC000       1.210  -2.642   2.215  0.00  0.00     0.082 A 
ATOM      6  C17 ZIN AC000       0.567  -2.023   1.158  0.00  0.00     0.074 A 
ENDROOT
BRANCH   4   7
ATOM      7  C7  ZIN AC000       2.578  -2.510   4.295  0.00  0.00     0.195 C 
ATOM      8  O8  ZIN AC000       2.085  -2.470   5.406  0.00  0.00    -0.287 OA
BRANCH   7   9
ATOM      9  C9  ZIN AC000       3.864  -3.209   4.082  0.00  0.00     0.015 A 
ATOM     10  C14 ZIN AC000       4.489  -3.161   2.835  0.00  0.00     0.015 A 
ATOM     11  C13 ZIN AC000       5.692  -3.810   2.645  0.00  0.00     0.001 A 
ATOM     12  C12 ZIN AC000       6.272  -4.517   3.683  0.00  0.00     0.000 A 
ATOM     13  C11 ZIN AC000       5.654  -4.573   4.920  0.00  0.00     0.001 A 
ATOM     14  C10 ZIN AC000       4.455  -3.924   5.126  0.00  0.00     0.015 A 
ENDBRANCH   7   9
ENDBRANCH   4   7
BRANCH   5  15
ATOM     15  O16 ZIN AC000       1.175  -3.993   2.338  0.00  0.00    -0.360 OA
ATOM     16  H28 ZIN AC000       0.427  -4.321   2.855  0.00  0.00     0.217 HD
ENDBRANCH   5  15
BRANCH   1  17
ATOM     17  O2  ZIN AC000      -0.015  -0.036  -0.006  0.00  0.00    -0.356 OA
ATOM     18  C1  ZIN AC000       0.070   1.389  -0.074  0.00  0.00     0.210 C 
ENDBRANCH   1  17
TORSDOF 4
