REMARK  1 active torsions:
REMARK  status: ('A' for Active; 'I' for Inactive)
REMARK    1  A    between atoms: C14_14  and  N15_15 
ROOT
ATOM      1 Cl1  ZIN AC000       0.090  -0.046  -0.143  0.00  0.00    -0.084 Cl
ATOM      2  C2  ZIN AC000       0.033   1.688  -0.090  0.00  0.00     0.035 A 
ATOM      3  C3  ZIN AC000      -1.189   2.338  -0.068  0.00  0.00     0.026 A 
ATOM      4  C4  ZIN AC000      -1.243   3.720  -0.037  0.00  0.00     0.040 A 
ATOM      5  C5  ZIN AC000      -0.073   4.461  -0.030  0.00  0.00     0.090 A 
ATOM      6  O6  ZIN AC000      -0.132   5.815  -0.062  0.00  0.00    -0.307 OA
ATOM      7  C7  ZIN AC000       0.406   6.449  -1.136  0.00  0.00     0.104 A 
ATOM      8  C8  ZIN AC000      -0.420   7.200  -1.955  0.00  0.00     0.040 A 
ATOM      9  C9  ZIN AC000       0.094   7.830  -3.075  0.00  0.00     0.003 A 
ATOM     10  C10 ZIN AC000       1.436   7.712  -3.384  0.00  0.00     0.002 A 
ATOM     11  C11 ZIN AC000       2.273   6.977  -2.569  0.00  0.00     0.034 A 
ATOM     12  C12 ZIN AC000       1.768   6.348  -1.427  0.00  0.00     0.093 A 
ATOM     13  N13 ZIN AC000       2.631   5.691  -0.602  0.00  0.00    -0.228 NA
ATOM     14  C14 ZIN AC000       2.417   4.582   0.017  0.00  0.00     0.139 C 
ATOM     15  C21 ZIN AC000       1.164   3.809  -0.030  0.00  0.00     0.045 A 
ATOM     16  C22 ZIN AC000       1.208   2.414  -0.065  0.00  0.00     0.042 A 
ENDROOT
BRANCH  14  17
ATOM     17  N15 ZIN AC000       3.442   4.079   0.785  0.00  0.00    -0.362 N 
ATOM     18  C20 ZIN AC000       4.774   4.703   0.769  0.00  0.00     0.154 C 
ATOM     19  C19 ZIN AC000       5.199   4.967   2.222  0.00  0.00     0.289 C 
ATOM     20  N18 ZIN AC000       5.109   3.716   2.989  0.00  0.00     0.086 N 
ATOM     21  C17 ZIN AC000       3.724   3.230   3.053  0.00  0.00     0.289 C 
ATOM     22  H33 ZIN AC000       5.496   3.830   3.913  0.00  0.00     0.316 HD
ATOM     23  C16 ZIN AC000       3.237   2.898   1.639  0.00  0.00     0.154 C 
ENDBRANCH  14  17
TORSDOF 1
