REMARK  13 active torsions:
REMARK  status: ('A' for Active; 'I' for Inactive)
REMARK    1  A    between atoms: C2_2  and  C3_3 
REMARK    2  A    between atoms: C3_3  and  S4_4 
REMARK    3  A    between atoms: S4_4  and  C5_5 
REMARK    4  A    between atoms: C7_7  and  N8_8 
REMARK    5  A    between atoms: N8_8  and  C9_9 
REMARK    6  A    between atoms: C12_11  and  C14_12 
REMARK    7  A    between atoms: N25_23  and  C26_24 
REMARK    8  A    between atoms: C29_26  and  O31_27 
REMARK    9  A    between atoms: O31_27  and  C32_28 
REMARK   10  A    between atoms: C32_28  and  C33_29 
REMARK   11  A    between atoms: C33_29  and  O34_30 
REMARK   12  A    between atoms: C35_31  and  O37_32 
REMARK   13  A    between atoms: C38_33  and  O40_34 
ROOT
ATOM      1  C5  ZIN AC000      -3.140  -2.673   0.018  0.00  0.00     0.192 A 
ATOM      2  N6  ZIN AC000      -3.987  -1.651   0.026  0.00  0.00    -0.203 NA
ATOM      3  C7  ZIN AC000      -5.299  -1.846   0.037  0.00  0.00     0.161 A 
ATOM      4  C22 ZIN AC000      -5.785  -3.170   0.039  0.00  0.00     0.173 A 
ATOM      5  N23 ZIN AC000      -7.014  -3.715   0.049  0.00  0.00    -0.124 NA
ATOM      6  N24 ZIN AC000      -6.929  -4.999   0.047  0.00  0.00    -0.063 NA
ATOM      7  N25 ZIN AC000      -5.577  -5.376   0.035  0.00  0.00    -0.224 N 
ATOM      8  C41 ZIN AC000      -4.849  -4.219   0.030  0.00  0.00     0.185 A 
ATOM      9  N42 ZIN AC000      -3.551  -3.931   0.015  0.00  0.00    -0.201 NA
ENDROOT
BRANCH   7  10
ATOM     10  C26 ZIN AC000      -5.049  -6.742   0.029  0.00  0.00     0.147 C 
ATOM     11  C38 ZIN AC000      -5.537  -7.502   1.275  0.00  0.00     0.174 C 
ATOM     12  C35 ZIN AC000      -6.356  -8.706   0.764  0.00  0.00     0.178 C 
ATOM     13  C29 ZIN AC000      -5.820  -8.949  -0.669  0.00  0.00     0.154 C 
ATOM     14  C28 ZIN AC000      -5.588  -7.511  -1.195  0.00  0.00     0.065 C 
BRANCH  11  15
ATOM     15  O40 ZIN AC000      -4.420  -7.959   2.041  0.00  0.00    -0.391 OA
ATOM     16  H64 ZIN AC000      -4.664  -8.464   2.829  0.00  0.00     0.210 HD
ENDBRANCH  11  15
BRANCH  12  17
ATOM     17  O37 ZIN AC000      -6.128  -9.853   1.584  0.00  0.00    -0.390 OA
ATOM     18  H63 ZIN AC000      -6.444  -9.756   2.493  0.00  0.00     0.210 HD
ENDBRANCH  12  17
BRANCH  13  19
ATOM     19  O31 ZIN AC000      -6.790  -9.630  -1.468  0.00  0.00    -0.381 OA
BRANCH  19  20
ATOM     20  C32 ZIN AC000      -6.600 -11.045  -1.532  0.00  0.00     0.194 C 
BRANCH  20  21
ATOM     21  C33 ZIN AC000      -7.689 -11.667  -2.408  0.00  0.00     0.190 C 
BRANCH  21  22
ATOM     22  O34 ZIN AC000      -7.541 -11.204  -3.752  0.00  0.00    -0.399 OA
ATOM     23  H62 ZIN AC000      -8.199 -11.558  -4.365  0.00  0.00     0.209 HD
ENDBRANCH  21  22
ENDBRANCH  20  21
ENDBRANCH  19  20
ENDBRANCH  13  19
ENDBRANCH   7  10
BRANCH   3  24
ATOM     24  N8  ZIN AC000      -6.172  -0.774   0.044  0.00  0.00    -0.367 N 
ATOM     25  H50 ZIN AC000      -7.129  -0.929   0.052  0.00  0.00     0.161 HD
BRANCH  24  26
ATOM     26  C9  ZIN AC000      -5.650   0.595   0.041  0.00  0.00     0.092 A 
ATOM     27  C12 ZIN AC000      -6.554   1.693  -0.523  0.00  0.00     0.043 A 
ATOM     28  C11 ZIN AC000      -6.307   1.603   0.986  0.00  0.00     0.037 A 
BRANCH  27  29
ATOM     29  C14 ZIN AC000      -5.894   2.824  -1.269  0.00  0.00    -0.049 A 
ATOM     30  C21 ZIN AC000      -6.220   3.061  -2.592  0.00  0.00     0.053 A 
ATOM     31  C19 ZIN AC000      -5.617   4.101  -3.277  0.00  0.00     0.155 A 
ATOM     32  C17 ZIN AC000      -4.679   4.899  -2.638  0.00  0.00     0.154 A 
ATOM     33  F20 ZIN AC000      -5.939   4.337  -4.567  0.00  0.00    -0.203 F 
ATOM     34  C16 ZIN AC000      -4.351   4.655  -1.316  0.00  0.00     0.046 A 
ATOM     35  F18 ZIN AC000      -4.086   5.912  -3.307  0.00  0.00    -0.203 F 
ATOM     36  C15 ZIN AC000      -4.958   3.618  -0.633  0.00  0.00     0.011 A 
ENDBRANCH  27  29
ENDBRANCH  24  26
ENDBRANCH   3  24
BRANCH   1  37
ATOM     37  S4  ZIN AC000      -1.409  -2.344   0.003  0.00  0.00    -0.090 SA
BRANCH  37  38
ATOM     38  C3  ZIN AC000      -1.433  -0.534   0.013  0.00  0.00     0.082 C 
BRANCH  38  39
ATOM     39  C2  ZIN AC000       0.002  -0.004   0.002  0.00  0.00     0.006 C 
ATOM     40  C1  ZIN AC000      -0.019   1.526   0.010  0.00  0.00     0.006 C 
ENDBRANCH  38  39
ENDBRANCH  37  38
ENDBRANCH   1  37
TORSDOF 13
