REMARK  4 active torsions:
REMARK  status: ('A' for Active; 'I' for Inactive)
REMARK    1  A    between atoms: C2_2  and  N4_3 
REMARK    2  A    between atoms: C2_2  and  C9_8 
REMARK    3  A    between atoms: N4_3  and  C5_4 
REMARK    4  A    between atoms: C9_8  and  C11_10 
ROOT
ATOM      1  C9  ZIN AC000       0.342  -0.699   1.152  0.00  0.00     0.192 C 
ATOM      2  O10 ZIN AC000       1.166  -1.588   1.101  0.00  0.00    -0.290 OA
ENDROOT
BRANCH   1   3
ATOM      3  C2  ZIN AC000       0.095   0.169  -0.055  0.00  0.00     0.291 C 
ATOM      4  C1  ZIN AC000       0.841   1.495   0.109  0.00  0.00     0.051 C 
BRANCH   3   5
ATOM      5  N4  ZIN AC000       0.578  -0.519  -1.260  0.00  0.00     0.103 N 
ATOM      6  H21 ZIN AC000       1.470  -0.149  -1.555  0.00  0.00     0.317 HD
BRANCH   5   7
ATOM      7  C5  ZIN AC000      -0.410  -0.437  -2.344  0.00  0.00     0.148 C 
ATOM      8  C6  ZIN AC000      -0.744   1.030  -2.620  0.00  0.00     0.048 C 
ATOM      9  C7  ZIN AC000       0.168  -1.076  -3.609  0.00  0.00     0.048 C 
ATOM     10  C8  ZIN AC000      -1.681  -1.182  -1.932  0.00  0.00     0.048 C 
ENDBRANCH   5   7
ENDBRANCH   3   5
ENDBRANCH   1   3
BRANCH   1  11
ATOM     11  C11 ZIN AC000      -0.416  -0.468   2.392  0.00  0.00     0.013 A 
ATOM     12  C17 ZIN AC000      -0.189  -1.272   3.514  0.00  0.00     0.039 A 
ATOM     13  C15 ZIN AC000      -0.899  -1.045   4.675  0.00  0.00     0.035 A 
ATOM     14  C14 ZIN AC000      -1.843  -0.032   4.726  0.00  0.00     0.024 A 
ATOM     15 Cl16 ZIN AC000      -0.615  -2.035   6.072  0.00  0.00    -0.084 Cl
ATOM     16  C13 ZIN AC000      -2.077   0.762   3.618  0.00  0.00     0.003 A 
ATOM     17  C12 ZIN AC000      -1.370   0.552   2.452  0.00  0.00     0.015 A 
ENDBRANCH   1  11
TORSDOF 4
