REMARK  7 active torsions:
REMARK  status: ('A' for Active; 'I' for Inactive)
REMARK    1  A    between atoms: C2_2  and  C3_3 
REMARK    2  A    between atoms: C2_2  and  N12_12 
REMARK    3  A    between atoms: C2_2  and  C14_14 
REMARK    4  A    between atoms: C3_3  and  C4_4 
REMARK    5  A    between atoms: C7_7  and  O8_8 
REMARK    6  A    between atoms: C9_9  and  O10_10 
REMARK    7  A    between atoms: N12_12  and  N13_13 
ROOT
ATOM      1  C3  ZIN AC000       0.742  -0.511   1.242  0.00  0.00     0.075 C 
ENDROOT
BRANCH   1   2
ATOM      2  C2  ZIN AC000       0.002  -0.004   0.002  0.00  0.00     0.113 C 
ATOM      3  C1  ZIN AC000      -0.019   1.526   0.010  0.00  0.00     0.045 C 
BRANCH   2   4
ATOM      4  N12 ZIN AC000      -1.376  -0.512   0.012  0.00  0.00    -0.243 NA
ATOM      5  H27 ZIN AC000      -1.389  -1.520   0.072  0.00  0.00     0.141 HD
BRANCH   4   6
ATOM      6  N13 ZIN AC000      -2.111  -0.050  -1.154  0.00  0.00    -0.270 NA
ATOM      7  H28 ZIN AC000      -3.058  -0.399  -1.147  0.00  0.00     0.137 HD
ATOM      8  H29 ZIN AC000      -2.098   0.957  -1.213  0.00  0.00     0.137 HD
ENDBRANCH   4   6
ENDBRANCH   2   4
BRANCH   2   9
ATOM      9  C14 ZIN AC000       0.707  -0.490  -1.238  0.00  0.00     0.198 C 
ATOM     10  O15 ZIN AC000       1.869  -0.179  -1.440  0.00  0.00    -0.646 OA
ATOM     11  O16 ZIN AC000       0.117  -1.195  -2.039  0.00  0.00    -0.646 OA
ENDBRANCH   2   9
ENDBRANCH   1   2
BRANCH   1  12
ATOM     12  C4  ZIN AC000       2.156   0.011   1.231  0.00  0.00    -0.053 A 
ATOM     13  C11 ZIN AC000       2.450   1.220   1.834  0.00  0.00     0.046 A 
ATOM     14  C9  ZIN AC000       3.750   1.698   1.830  0.00  0.00     0.099 A 
ATOM     15  C7  ZIN AC000       4.756   0.964   1.208  0.00  0.00     0.098 A 
ATOM     16  C6  ZIN AC000       4.454  -0.244   0.601  0.00  0.00     0.040 A 
ATOM     17  C5  ZIN AC000       3.155  -0.718   0.614  0.00  0.00     0.010 A 
BRANCH  14  18
ATOM     18  O10 ZIN AC000       4.041   2.885   2.427  0.00  0.00    -0.358 OA
ATOM     19  H25 ZIN AC000       3.964   3.650   1.840  0.00  0.00     0.217 HD
ENDBRANCH  14  18
BRANCH  15  20
ATOM     20  O8  ZIN AC000       6.033   1.432   1.197  0.00  0.00    -0.358 OA
ATOM     21  H24 ZIN AC000       6.241   1.989   0.434  0.00  0.00     0.217 HD
ENDBRANCH  15  20
ENDBRANCH   1  12
TORSDOF 7
