REMARK  16 active torsions:
REMARK  status: ('A' for Active; 'I' for Inactive)
REMARK    1  A    between atoms: N1_1  and  C5_5 
REMARK    2  A    between atoms: C5_5  and  C6_6 
REMARK    3  A    between atoms: C9_8  and  O11_9 
REMARK    4  A    between atoms: O11_9  and  C12_10 
REMARK    5  A    between atoms: C14_11  and  N16_12 
REMARK    6  A    between atoms: C21_17  and  N23_18 
REMARK    7  A    between atoms: C27_22  and  O29_23 
REMARK    8  A    between atoms: O29_23  and  C30_24 
REMARK    9  A    between atoms: C33_26  and  C35_27 
REMARK   10  A    between atoms: C35_27  and  O36_28 
REMARK   11  A    between atoms: C37_29  and  O39_30 
REMARK   12  A    between atoms: C40_31  and  N42_32 
REMARK   13  A    between atoms: C46_36  and  O48_37 
REMARK   14  A    between atoms: C49_38  and  O51_39 
REMARK   15  A    between atoms: C52_40  and  N54_41 
REMARK   16  A    between atoms: C59_46  and  O61_47 
ROOT
ATOM      1  C12 ZIN AC000       0.660   4.953  -1.432  0.00  0.00     0.186 C 
ATOM      2  C14 ZIN AC000       2.166   5.095  -1.204  0.00  0.00     0.217 C 
ATOM      3  C20 ZIN AC000       2.921   4.477  -2.382  0.00  0.00     0.071 C 
ATOM      4  C21 ZIN AC000       2.530   5.200  -3.673  0.00  0.00     0.217 C 
ATOM      5  C27 ZIN AC000       1.024   5.058  -3.902  0.00  0.00     0.186 C 
ATOM      6  C49 ZIN AC000       0.269   5.676  -2.723  0.00  0.00     0.180 C 
ENDROOT
BRANCH   1   7
ATOM      7  O11 ZIN AC000      -0.045   5.530  -0.331  0.00  0.00    -0.349 OA
BRANCH   7   8
ATOM      8  C9  ZIN AC000      -1.308   4.916  -0.063  0.00  0.00     0.291 C 
ATOM      9  O8  ZIN AC000      -1.098   3.605   0.464  0.00  0.00    -0.350 OA
ATOM     10  C6  ZIN AC000      -0.328   3.576   1.667  0.00  0.00     0.178 C 
ATOM     11  C59 ZIN AC000      -1.059   4.363   2.758  0.00  0.00     0.151 C 
ATOM     12  C58 ZIN AC000      -1.293   5.797   2.272  0.00  0.00     0.072 C 
ATOM     13  C52 ZIN AC000      -2.078   5.758   0.957  0.00  0.00     0.240 C 
BRANCH  10  14
ATOM     14  C5  ZIN AC000      -0.144   2.126   2.121  0.00  0.00     0.264 C 
BRANCH  14  15
ATOM     15  N1  ZIN AC000       0.660   1.401   1.129  0.00  0.00    -0.077 N 
ATOM     16  H2  ZIN AC000       0.781   0.445   1.428  0.00  0.00     0.274 HD
ATOM     17  H3  ZIN AC000       1.563   1.843   1.040  0.00  0.00     0.274 HD
ATOM     18  H4  ZIN AC000       0.189   1.417   0.237  0.00  0.00     0.274 HD
ENDBRANCH  14  15
ENDBRANCH  10  14
BRANCH  11  19
ATOM     19  O61 ZIN AC000      -0.266   4.385   3.946  0.00  0.00    -0.393 OA
ATOM     20  H74 ZIN AC000      -0.668   4.872   4.679  0.00  0.00     0.210 HD
ENDBRANCH  11  19
BRANCH  13  21
ATOM     21  N54 ZIN AC000      -2.245   7.123   0.442  0.00  0.00    -0.070 N 
ATOM     22  H55 ZIN AC000      -2.759   7.095  -0.426  0.00  0.00     0.274 HD
ATOM     23  H56 ZIN AC000      -2.753   7.677   1.116  0.00  0.00     0.274 HD
ATOM     24  H57 ZIN AC000      -1.338   7.536   0.283  0.00  0.00     0.274 HD
ENDBRANCH  13  21
ENDBRANCH   7   8
ENDBRANCH   1   7
BRANCH   6  25
ATOM     25  O51 ZIN AC000      -1.137   5.544  -2.936  0.00  0.00    -0.390 OA
ATOM     26  H71 ZIN AC000      -1.475   6.071  -3.673  0.00  0.00     0.210 HD
ENDBRANCH   6  25
BRANCH   2  27
ATOM     27  N16 ZIN AC000       2.541   4.401   0.035  0.00  0.00    -0.072 N 
ATOM     28  H17 ZIN AC000       2.303   3.423  -0.041  0.00  0.00     0.274 HD
ATOM     29  H18 ZIN AC000       3.534   4.494   0.186  0.00  0.00     0.274 HD
ATOM     30  H19 ZIN AC000       2.043   4.808   0.813  0.00  0.00     0.274 HD
ENDBRANCH   2  27
BRANCH   5  31
ATOM     31  O29 ZIN AC000       0.660   5.734  -5.107  0.00  0.00    -0.349 OA
BRANCH  31  32
ATOM     32  C30 ZIN AC000       0.641   4.892  -6.262  0.00  0.00     0.291 C 
ATOM     33  C46 ZIN AC000       0.484   5.752  -7.518  0.00  0.00     0.206 C 
ATOM     34  C40 ZIN AC000      -0.858   6.489  -7.458  0.00  0.00     0.247 C 
ATOM     35  C37 ZIN AC000      -1.985   5.462  -7.312  0.00  0.00     0.182 C 
ATOM     36  C33 ZIN AC000      -1.732   4.612  -6.064  0.00  0.00     0.179 C 
ATOM     37  O32 ZIN AC000      -0.455   3.980  -6.170  0.00  0.00    -0.349 OA
BRANCH  33  38
ATOM     38  O48 ZIN AC000       1.548   6.704  -7.583  0.00  0.00    -0.388 OA
ATOM     39  H70 ZIN AC000       2.429   6.307  -7.624  0.00  0.00     0.210 HD
ENDBRANCH  33  38
BRANCH  34  40
ATOM     40  N42 ZIN AC000      -1.053   7.260  -8.693  0.00  0.00    -0.070 N 
ATOM     41  H43 ZIN AC000      -1.941   7.738  -8.655  0.00  0.00     0.274 HD
ATOM     42  H44 ZIN AC000      -0.310   7.936  -8.789  0.00  0.00     0.274 HD
ATOM     43  H45 ZIN AC000      -1.043   6.634  -9.485  0.00  0.00     0.274 HD
ENDBRANCH  34  40
BRANCH  35  44
ATOM     44  O39 ZIN AC000      -3.237   6.139  -7.183  0.00  0.00    -0.391 OA
ATOM     45  H69 ZIN AC000      -3.995   5.548  -7.082  0.00  0.00     0.210 HD
ENDBRANCH  35  44
BRANCH  36  46
ATOM     46  C35 ZIN AC000      -2.821   3.545  -5.943  0.00  0.00     0.198 C 
BRANCH  46  47
ATOM     47  O36 ZIN AC000      -2.668   2.845  -4.707  0.00  0.00    -0.398 OA
ATOM     48  H68 ZIN AC000      -3.326   2.151  -4.563  0.00  0.00     0.209 HD
ENDBRANCH  46  47
ENDBRANCH  36  46
ENDBRANCH  31  32
ENDBRANCH   5  31
BRANCH   4  49
ATOM     49  N23 ZIN AC000       3.255   4.607  -4.805  0.00  0.00    -0.072 N 
ATOM     50  H24 ZIN AC000       2.926   3.665  -4.959  0.00  0.00     0.274 HD
ATOM     51  H25 ZIN AC000       3.094   5.159  -5.634  0.00  0.00     0.274 HD
ATOM     52  H26 ZIN AC000       4.243   4.589  -4.600  0.00  0.00     0.274 HD
ENDBRANCH   4  49
TORSDOF 16
