REMARK  5 active torsions:
REMARK  status: ('A' for Active; 'I' for Inactive)
REMARK       I    between atoms: C2_2  and  N4_4 
REMARK    1  A    between atoms: N4_4  and  C5_5 
REMARK    2  A    between atoms: C5_5  and  C7_6 
REMARK    3  A    between atoms: C5_5  and  C15_14 
REMARK    4  A    between atoms: C7_6  and  C8_7 
REMARK    5  A    between atoms: C11_10  and  O12_11 
ROOT
ATOM      1  C5  <0> d          -1.136  -2.159   0.001  0.00  0.00     0.189 C 
ENDROOT
BRANCH   1   2
ATOM      2  N4  <0> d          -1.156  -0.694   0.009  0.00  0.00    -0.347 N 
ATOM      3  C2  <0> d           0.002  -0.004   0.002  0.00  0.00     0.214 C 
ATOM      4  C1  <0> d          -0.018   1.503   0.010  0.00  0.00     0.117 C 
ATOM      5  O3  <0> d           1.060  -0.596  -0.011  0.00  0.00    -0.274 OA
ATOM      6  H21 <0> d          -2.002  -0.220   0.020  0.00  0.00     0.163 HD
ENDBRANCH   1   2
BRANCH   1   7
ATOM      7  C7  <0> d          -2.430  -2.690   0.621  0.00  0.00     0.074 C 
BRANCH   7   8
ATOM      8  C8  <0> d          -2.488  -2.300   2.075  0.00  0.00    -0.056 A 
ATOM      9  C14 <0> d          -3.074  -1.103   2.446  0.00  0.00     0.010 A 
ATOM     10  C13 <0> d          -3.132  -0.746   3.779  0.00  0.00     0.037 A 
ATOM     11  C11 <0> d          -2.594  -1.584   4.745  0.00  0.00     0.065 A 
ATOM     12  C10 <0> d          -2.003  -2.781   4.370  0.00  0.00     0.037 A 
ATOM     13  C9  <0> d          -1.951  -3.136   3.036  0.00  0.00     0.010 A 
BRANCH  11  14
ATOM     14  O12 <0> d          -2.646  -1.232   6.057  0.00  0.00    -0.361 OA
ATOM     15  H26 <0> d          -1.882  -0.721   6.357  0.00  0.00     0.217 HD
ENDBRANCH  11  14
ENDBRANCH   7   8
ENDBRANCH   1   7
BRANCH   1  16
ATOM     16  C15 <0> d          -1.019  -2.652  -1.418  0.00  0.00     0.197 C 
ATOM     17  O16 <0> d          -0.457  -3.708  -1.652  0.00  0.00    -0.646 OA
ATOM     18  O17 <0> d          -1.486  -1.994  -2.332  0.00  0.00    -0.646 OA
ENDBRANCH   1  16
TORSDOF 5
