REMARK  5 active torsions:
REMARK  status: ('A' for Active; 'I' for Inactive)
REMARK    1  A    between atoms: N2_2  and  C5_5 
REMARK    2  A    between atoms: C5_5  and  C6_6 
REMARK    3  A    between atoms: C6_6  and  C7_7 
REMARK    4  A    between atoms: C13_13  and  C14_14 
REMARK    5  A    between atoms: C14_14  and  N15_15 
ROOT
ATOM      1  C7  ZIN AC000      -3.492  -0.632  -1.275  0.00  0.00    -0.029 A 
ATOM      2  C8  ZIN AC000      -3.922  -1.785  -1.812  0.00  0.00     0.096 A 
ATOM      3  N9  ZIN AC000      -5.268  -1.922  -1.607  0.00  0.00    -0.365 N 
ATOM      4  C10 ZIN AC000      -5.749  -0.833  -0.915  0.00  0.00     0.043 A 
ATOM      5  C11 ZIN AC000      -7.011  -0.471  -0.457  0.00  0.00     0.031 A 
ATOM      6  C12 ZIN AC000      -7.178   0.716   0.222  0.00  0.00     0.011 A 
ATOM      7  C13 ZIN AC000      -6.099   1.557   0.454  0.00  0.00    -0.037 A 
ATOM      8  C20 ZIN AC000      -4.850   1.221   0.012  0.00  0.00     0.023 A 
ATOM      9  C21 ZIN AC000      -4.657   0.020  -0.672  0.00  0.00    -0.001 A 
ATOM     10  H33 ZIN AC000      -5.803  -2.674  -1.904  0.00  0.00     0.165 HD
ENDROOT
BRANCH   1  11
ATOM     11  C6  ZIN AC000      -2.078  -0.110  -1.286  0.00  0.00     0.068 C 
BRANCH  11  12
ATOM     12  C5  ZIN AC000      -1.376  -0.512   0.012  0.00  0.00     0.238 C 
BRANCH  12  13
ATOM     13  N2  ZIN AC000       0.002  -0.004   0.002  0.00  0.00    -0.079 N 
ATOM     14  C1  ZIN AC000      -0.018   1.465   0.010  0.00  0.00     0.269 C 
ATOM     15  H3  ZIN AC000       0.474  -0.330  -0.828  0.00  0.00     0.278 HD
ATOM     16  C4  ZIN AC000       0.713  -0.491   1.192  0.00  0.00     0.269 C 
ENDBRANCH  12  13
ENDBRANCH  11  12
ENDBRANCH   1  11
BRANCH   7  17
ATOM     17  C14 ZIN AC000      -6.306   2.851   1.199  0.00  0.00     0.190 C 
BRANCH  17  18
ATOM     18  N15 ZIN AC000      -6.124   2.622   2.635  0.00  0.00    -0.258 N 
ATOM     19  N19 ZIN AC000      -6.795   1.677   3.428  0.00  0.00    -0.164 NA
ATOM     20  C18 ZIN AC000      -6.333   1.807   4.643  0.00  0.00     0.256 A 
ATOM     21  N17 ZIN AC000      -5.422   2.779   4.658  0.00  0.00    -0.234 NA
ATOM     22  C16 ZIN AC000      -5.287   3.278   3.456  0.00  0.00     0.230 A 
ENDBRANCH  17  18
ENDBRANCH   7  17
TORSDOF 5
