REMARK  6 active torsions:
REMARK  status: ('A' for Active; 'I' for Inactive)
REMARK    1  A    between atoms: C4_4  and  O6_5 
REMARK    2  A    between atoms: C24_21  and  O26_22 
REMARK    3  A    between atoms: C27_23  and  O28_24 
REMARK    4  A    between atoms: C27_23  and  C29_25 
REMARK    5  A    between atoms: C29_25  and  C31_27 
REMARK    6  A    between atoms: C31_27  and  O32_28 
ROOT
ATOM      1  C1  ZIN AC000      -0.703   1.602  -0.207  0.00  0.00     0.019 C 
ATOM      2  C2  ZIN AC000      -0.867   0.081  -0.206  0.00  0.00     0.003 C 
ATOM      3  C3  ZIN AC000      -2.216  -0.290   0.381  0.00  0.00     0.048 C 
ATOM      4  C4  ZIN AC000      -2.306   0.379   1.762  0.00  0.00     0.160 C 
ATOM      5  C7  ZIN AC000      -1.160  -0.050   2.672  0.00  0.00     0.147 C 
ATOM      6  F8  ZIN AC000      -1.284  -1.414   2.958  0.00  0.00    -0.238 F 
ATOM      7  C9  ZIN AC000       0.209   0.187   2.015  0.00  0.00     0.035 C 
ATOM      8  C11 ZIN AC000       1.316  -0.328   2.937  0.00  0.00     0.013 C 
ATOM      9  C12 ZIN AC000       1.321   0.477   4.240  0.00  0.00     0.036 C 
ATOM     10  C13 ZIN AC000      -0.070   0.406   4.843  0.00  0.00    -0.061 A 
ATOM     11  C14 ZIN AC000      -0.204   0.035   6.108  0.00  0.00     0.058 A 
ATOM     12  C15 ZIN AC000      -1.538  -0.065   6.722  0.00  0.00     0.172 A 
ATOM     13  O16 ZIN AC000      -1.663  -0.371   7.893  0.00  0.00    -0.289 OA
ATOM     14  C17 ZIN AC000      -2.717   0.215   5.886  0.00  0.00     0.052 A 
ATOM     15  C18 ZIN AC000      -2.560   0.590   4.626  0.00  0.00    -0.006 A 
ATOM     16  C19 ZIN AC000      -1.226   0.747   3.979  0.00  0.00     0.036 A 
ATOM     17  C20 ZIN AC000      -1.061   2.219   3.595  0.00  0.00     0.028 C 
ATOM     18  C21 ZIN AC000       0.218  -0.565   0.697  0.00  0.00     0.007 C 
ATOM     19  C23 ZIN AC000       1.487  -0.408  -0.150  0.00  0.00     0.041 C 
ATOM     20  C24 ZIN AC000       0.992  -0.743  -1.584  0.00  0.00     0.161 C 
ATOM     21  C27 ZIN AC000      -0.548  -0.474  -1.590  0.00  0.00     0.153 C 
ENDROOT
BRANCH  21  22
ATOM     22  O28 ZIN AC000      -1.262  -1.693  -1.811  0.00  0.00    -0.378 OA
ATOM     23  H52 ZIN AC000      -1.068  -2.114  -2.659  0.00  0.00     0.211 HD
ENDBRANCH  21  22
BRANCH  21  24
ATOM     24  C29 ZIN AC000      -0.898   0.536  -2.652  0.00  0.00     0.187 C 
ATOM     25  O30 ZIN AC000      -0.067   1.327  -3.030  0.00  0.00    -0.292 OA
BRANCH  24  26
ATOM     26  C31 ZIN AC000      -2.284   0.560  -3.243  0.00  0.00     0.245 C 
BRANCH  26  27
ATOM     27  O32 ZIN AC000      -2.367   1.599  -4.221  0.00  0.00    -0.393 OA
ATOM     28  H55 ZIN AC000      -3.234   1.672  -4.643  0.00  0.00     0.209 HD
ENDBRANCH  26  27
ENDBRANCH  24  26
ENDBRANCH  21  24
BRANCH  20  29
ATOM     29  O26 ZIN AC000       1.245  -2.117  -1.881  0.00  0.00    -0.392 OA
ATOM     30  H51 ZIN AC000       2.182  -2.357  -1.865  0.00  0.00     0.210 HD
ENDBRANCH  20  29
BRANCH   4  31
ATOM     31  O6  ZIN AC000      -2.263   1.797   1.597  0.00  0.00    -0.392 OA
ATOM     32  H38 ZIN AC000      -2.982   2.152   1.056  0.00  0.00     0.210 HD
ENDBRANCH   4  31
TORSDOF 6
