REMARK  8 active torsions:
REMARK  status: ('A' for Active; 'I' for Inactive)
REMARK    1  A    between atoms: C2_2  and  C3_3 
REMARK    2  A    between atoms: C3_3  and  C4_4 
REMARK    3  A    between atoms: C4_4  and  C6_6 
REMARK    4  A    between atoms: C4_4  and  C11_11 
REMARK    5  A    between atoms: C6_6  and  O7_7 
REMARK    6  A    between atoms: O7_7  and  C8_8 
REMARK       I    between atoms: C8_8  and  N9_9 
REMARK    7  A    between atoms: C11_11  and  O12_12 
REMARK    8  A    between atoms: O12_12  and  C13_13 
REMARK       I    between atoms: C13_13  and  N14_14 
ROOT
ATOM      1  C4  ZIN AC000       0.763  -2.041   1.233  0.00  0.00     0.000 C 
ATOM      2  C5  ZIN AC000       1.503  -2.548   2.473  0.00  0.00     0.019 C 
ENDROOT
BRANCH   1   3
ATOM      3  C3  ZIN AC000       0.742  -0.511   1.242  0.00  0.00     0.013 C 
BRANCH   3   4
ATOM      4  C2  ZIN AC000       0.002  -0.004   0.002  0.00  0.00    -0.004 C 
ATOM      5  C1  ZIN AC000      -0.019   1.526   0.010  0.00  0.00     0.005 C 
ENDBRANCH   3   4
ENDBRANCH   1   3
BRANCH   1   6
ATOM      6  C6  ZIN AC000      -0.673  -2.570   1.244  0.00  0.00     0.192 C 
BRANCH   6   7
ATOM      7  O7  ZIN AC000      -1.352  -2.102   2.439  0.00  0.00    -0.303 OA
BRANCH   7   8
ATOM      8  C8  ZIN AC000      -2.634  -2.482   2.602  0.00  0.00     0.358 C 
ATOM      9  N9  ZIN AC000      -3.322  -2.082   3.689  0.00  0.00    -0.346 N 
ATOM     10  H28 ZIN AC000      -2.894  -1.520   4.354  0.00  0.00     0.161 HD
ATOM     11  H29 ZIN AC000      -4.245  -2.356   3.806  0.00  0.00     0.161 HD
ATOM     12  O10 ZIN AC000      -3.169  -3.186   1.768  0.00  0.00    -0.239 OA
ENDBRANCH   7   8
ENDBRANCH   6   7
ENDBRANCH   1   6
BRANCH   1  13
ATOM     13  C11 ZIN AC000       1.479  -2.534  -0.026  0.00  0.00     0.192 C 
BRANCH  13  14
ATOM     14  O12 ZIN AC000       2.841  -2.032  -0.036  0.00  0.00    -0.303 OA
BRANCH  14  15
ATOM     15  C13 ZIN AC000       3.612  -2.377  -1.084  0.00  0.00     0.358 C 
ATOM     16  N14 ZIN AC000       4.887  -1.944  -1.155  0.00  0.00    -0.346 N 
ATOM     17  H32 ZIN AC000       5.248  -1.383  -0.451  0.00  0.00     0.161 HD
ATOM     18  H33 ZIN AC000       5.442  -2.193  -1.910  0.00  0.00     0.161 HD
ATOM     19  O15 ZIN AC000       3.159  -3.079  -1.966  0.00  0.00    -0.239 OA
ENDBRANCH  14  15
ENDBRANCH  13  14
ENDBRANCH   1  13
TORSDOF 8
