REMARK  13 active torsions:
REMARK  status: ('A' for Active; 'I' for Inactive)
REMARK    1  A    between atoms: C2_2  and  O4_4 
REMARK    2  A    between atoms: O4_4  and  C5_5 
REMARK    3  A    between atoms: C5_5  and  C7_7 
REMARK    4  A    between atoms: C7_7  and  N10_9 
REMARK    5  A    between atoms: N10_9  and  P11_10 
REMARK    6  A    between atoms: P11_10  and  C13_12 
REMARK    7  A    between atoms: P11_10  and  O29_27 
REMARK    8  A    between atoms: C13_12  and  O14_13 
REMARK    9  A    between atoms: O14_13  and  C15_14 
REMARK   10  A    between atoms: C15_14  and  C18_16 
REMARK   11  A    between atoms: C18_16  and  N19_17 
REMARK   12  A    between atoms: C23_21  and  N24_22 
REMARK   13  A    between atoms: O29_27  and  C30_28 
ROOT
ATOM      1  P11 ZIN AC000      -5.612  -4.161  -2.403  0.00  0.00     0.296 P 
ATOM      2  O12 ZIN AC000      -6.996  -4.531  -2.031  0.00  0.00    -0.271 OA
ENDROOT
BRANCH   1   3
ATOM      3  N10 ZIN AC000      -5.135  -2.812  -1.516  0.00  0.00    -0.234 NA
ATOM      4  H46 ZIN AC000      -4.172  -2.578  -1.705  0.00  0.00     0.132 HD
BRANCH   3   5
ATOM      5  C7  ZIN AC000      -6.017  -1.668  -1.784  0.00  0.00     0.160 C 
ATOM      6  C9  ZIN AC000      -7.112  -1.607  -0.717  0.00  0.00     0.037 C 
BRANCH   5   7
ATOM      7  C5  ZIN AC000      -5.212  -0.395  -1.750  0.00  0.00     0.277 C 
ATOM      8  O6  ZIN AC000      -4.025  -0.436  -1.527  0.00  0.00    -0.263 OA
BRANCH   7   9
ATOM      9  O4  ZIN AC000      -5.812   0.786  -1.969  0.00  0.00    -0.316 OA
BRANCH   9  10
ATOM     10  C2  ZIN AC000      -4.975   1.971  -1.921  0.00  0.00     0.123 C 
ATOM     11  C1  ZIN AC000      -5.544   3.036  -2.860  0.00  0.00     0.040 C 
ATOM     12  C3  ZIN AC000      -4.942   2.515  -0.492  0.00  0.00     0.040 C 
ENDBRANCH   9  10
ENDBRANCH   7   9
ENDBRANCH   5   7
ENDBRANCH   3   5
ENDBRANCH   1   3
BRANCH   1  13
ATOM     13  C13 ZIN AC000      -4.493  -5.553  -2.040  0.00  0.00     0.286 C 
BRANCH  13  14
ATOM     14  O14 ZIN AC000      -4.527  -5.840  -0.641  0.00  0.00    -0.374 OA
BRANCH  14  15
ATOM     15  C15 ZIN AC000      -5.705  -6.531  -0.218  0.00  0.00     0.136 C 
ATOM     16  C17 ZIN AC000      -6.546  -5.609   0.667  0.00  0.00     0.041 C 
BRANCH  15  17
ATOM     17  C18 ZIN AC000      -5.308  -7.777   0.576  0.00  0.00     0.163 C 
BRANCH  17  18
ATOM     18  N19 ZIN AC000      -4.600  -8.711  -0.303  0.00  0.00    -0.322 N 
ATOM     19  C28 ZIN AC000      -3.260  -8.692  -0.597  0.00  0.00     0.165 A 
ATOM     20  C22 ZIN AC000      -3.040  -9.771  -1.471  0.00  0.00     0.149 A 
ATOM     21  N27 ZIN AC000      -2.231  -7.934  -0.234  0.00  0.00    -0.222 NA
ATOM     22  N21 ZIN AC000      -4.236 -10.375  -1.668  0.00  0.00    -0.236 NA
ATOM     23  C23 ZIN AC000      -1.732  -9.992  -1.934  0.00  0.00     0.155 A 
ATOM     24  C20 ZIN AC000      -5.153  -9.755  -0.984  0.00  0.00     0.212 A 
ATOM     25  N25 ZIN AC000      -0.767  -9.177  -1.522  0.00  0.00    -0.222 NA
ATOM     26  C26 ZIN AC000      -1.022  -8.179  -0.695  0.00  0.00     0.237 A 
BRANCH  23  27
ATOM     27  N24 ZIN AC000      -1.456 -11.035  -2.801  0.00  0.00    -0.382 N 
ATOM     28  H55 ZIN AC000      -2.169 -11.623  -3.096  0.00  0.00     0.157 HD
ATOM     29  H56 ZIN AC000      -0.549 -11.178  -3.115  0.00  0.00     0.157 HD
ENDBRANCH  23  27
ENDBRANCH  17  18
ENDBRANCH  15  17
ENDBRANCH  14  15
ENDBRANCH  13  14
ENDBRANCH   1  13
BRANCH   1  30
ATOM     30  O29 ZIN AC000      -5.552  -3.819  -3.975  0.00  0.00    -0.279 OA
BRANCH  30  31
ATOM     31  C30 ZIN AC000      -6.031  -4.808  -4.774  0.00  0.00     0.078 A 
ATOM     32  C35 ZIN AC000      -7.390  -4.890  -5.040  0.00  0.00     0.037 A 
ATOM     33  C34 ZIN AC000      -7.874  -5.893  -5.858  0.00  0.00     0.003 A 
ATOM     34  C33 ZIN AC000      -7.006  -6.822  -6.401  0.00  0.00     0.000 A 
ATOM     35  C32 ZIN AC000      -5.652  -6.746  -6.133  0.00  0.00     0.003 A 
ATOM     36  C31 ZIN AC000      -5.162  -5.742  -5.321  0.00  0.00     0.037 A 
ENDBRANCH  30  31
ENDBRANCH   1  30
TORSDOF 13
