REMARK  7 active torsions:
REMARK  status: ('A' for Active; 'I' for Inactive)
REMARK    1  A    between atoms: N1_1  and  C5_5 
REMARK    2  A    between atoms: C5_5  and  C6_6 
REMARK    3  A    between atoms: C6_6  and  C7_7 
REMARK    4  A    between atoms: C7_7  and  C8_8 
REMARK    5  A    between atoms: C8_8  and  N9_9 
REMARK    6  A    between atoms: C8_8  and  C13_13 
REMARK    7  A    between atoms: C8_8  and  C16_16 
ROOT
ATOM      1  C8  <0> d          -4.320   1.018   2.436  0.00  0.00     0.267 C 
ENDROOT
BRANCH   1   2
ATOM      2  C7  <0> d          -2.862   1.482   2.453  0.00  0.00     0.058 C 
BRANCH   2   3
ATOM      3  C6  <0> d          -2.110   0.845   1.283  0.00  0.00     0.030 C 
BRANCH   3   4
ATOM      4  C5  <0> d          -0.627   1.208   1.372  0.00  0.00     0.230 C 
BRANCH   4   5
ATOM      5  N1  <0> d           0.095   0.596   0.248  0.00  0.00    -0.079 N 
ATOM      6  H2  <0> d          -0.008  -0.407   0.288  0.00  0.00     0.274 HD
ATOM      7  H3  <0> d           1.074   0.836   0.307  0.00  0.00     0.274 HD
ATOM      8  H4  <0> d          -0.283   0.939  -0.622  0.00  0.00     0.274 HD
ENDBRANCH   4   5
ENDBRANCH   3   4
ENDBRANCH   2   3
ENDBRANCH   1   2
BRANCH   1   9
ATOM      9  N9  <0> d          -4.926   1.357   1.142  0.00  0.00    -0.055 N 
ATOM     10  H10 <0> d          -4.418   0.897   0.402  0.00  0.00     0.276 HD
ATOM     11  H11 <0> d          -5.888   1.050   1.131  0.00  0.00     0.276 HD
ATOM     12  H12 <0> d          -4.890   2.356   1.005  0.00  0.00     0.276 HD
ENDBRANCH   1   9
BRANCH   1  13
ATOM     13  C13 <0> d          -4.374  -0.474   2.642  0.00  0.00     0.216 C 
ATOM     14  O14 <0> d          -3.920  -0.966   3.660  0.00  0.00    -0.646 OA
ATOM     15  O15 <0> d          -4.872  -1.189   1.789  0.00  0.00    -0.646 OA
ENDBRANCH   1  13
BRANCH   1  16
ATOM     16  C16 <0> d          -5.090   1.716   3.559  0.00  0.00     0.399 C 
ATOM     17  F17 <0> d          -4.473   1.447   4.785  0.00  0.00    -0.211 F 
ATOM     18  F18 <0> d          -5.096   3.096   3.333  0.00  0.00    -0.211 F 
ENDBRANCH   1  16
TORSDOF 7
