REMARK  12 active torsions:
REMARK  status: ('A' for Active; 'I' for Inactive)
REMARK    1  A    between atoms: C2_2  and  C3_3 
REMARK    2  A    between atoms: C3_3  and  C4_4 
REMARK    3  A    between atoms: C4_4  and  C5_5 
REMARK    4  A    between atoms: C5_5  and  C6_6 
REMARK    5  A    between atoms: C6_6  and  C7_7 
REMARK    6  A    between atoms: C7_7  and  C8_8 
REMARK    7  A    between atoms: C8_8  and  C9_9 
REMARK    8  A    between atoms: C9_9  and  C10_10 
REMARK    9  A    between atoms: C10_10  and  C11_11 
REMARK   10  A    between atoms: C11_11  and  C12_12 
REMARK   11  A    between atoms: C12_12  and  O13_13 
REMARK   12  A    between atoms: O13_13  and  S14_14 
ROOT
ATOM      1  C9  ZIN AC000      -5.677  -6.712   0.020  0.00  0.00     0.000 C 
ENDROOT
BRANCH   1   2
ATOM      2  C8  ZIN AC000      -4.242  -6.182   0.009  0.00  0.00     0.000 C 
BRANCH   2   3
ATOM      3  C7  ZIN AC000      -4.263  -4.652   0.018  0.00  0.00     0.000 C 
BRANCH   3   4
ATOM      4  C6  ZIN AC000      -2.827  -4.123   0.007  0.00  0.00     0.000 C 
BRANCH   4   5
ATOM      5  C5  ZIN AC000      -2.848  -2.593   0.015  0.00  0.00     0.000 C 
BRANCH   5   6
ATOM      6  C4  ZIN AC000      -1.413  -2.063   0.004  0.00  0.00     0.000 C 
BRANCH   6   7
ATOM      7  C3  ZIN AC000      -1.433  -0.534   0.013  0.00  0.00    -0.000 C 
BRANCH   7   8
ATOM      8  C2  ZIN AC000       0.002  -0.004   0.002  0.00  0.00    -0.005 C 
ATOM      9  C1  ZIN AC000      -0.019   1.526   0.010  0.00  0.00     0.005 C 
ENDBRANCH   7   8
ENDBRANCH   6   7
ENDBRANCH   5   6
ENDBRANCH   4   5
ENDBRANCH   3   4
ENDBRANCH   2   3
ENDBRANCH   1   2
BRANCH   1  10
ATOM     10  C10 ZIN AC000      -5.657  -8.242   0.012  0.00  0.00     0.002 C 
BRANCH  10  11
ATOM     11  C11 ZIN AC000      -7.092  -8.771   0.023  0.00  0.00     0.028 C 
BRANCH  11  12
ATOM     12  C12 ZIN AC000      -7.071 -10.301   0.014  0.00  0.00     0.193 C 
BRANCH  12  13
ATOM     13  O13 ZIN AC000      -8.412 -10.796   0.024  0.00  0.00    -0.257 OA
BRANCH  13  14
ATOM     14  S14 ZIN AC000      -8.511 -12.315   0.017  0.00  0.00     0.251 S 
ATOM     15  O15 ZIN AC000      -9.885 -12.643  -0.332  0.00  0.00    -0.572 OA
ATOM     16  O16 ZIN AC000      -7.565 -12.792  -0.979  0.00  0.00    -0.572 OA
ATOM     17  O17 ZIN AC000      -8.166 -12.764   1.357  0.00  0.00    -0.572 OA
ENDBRANCH  13  14
ENDBRANCH  12  13
ENDBRANCH  11  12
ENDBRANCH  10  11
ENDBRANCH   1  10
TORSDOF 12
