REMARK  5 active torsions:
REMARK  status: ('A' for Active; 'I' for Inactive)
REMARK    1  A    between atoms: C7_6  and  N9_7 
REMARK       I    between atoms: N9_7  and  C10_8 
REMARK    2  A    between atoms: C10_8  and  C12_10 
REMARK    3  A    between atoms: C12_10  and  O13_11 
REMARK    4  A    between atoms: O13_11  and  C14_12 
REMARK    5  A    between atoms: C23_21  and  C25_22 
ROOT
ATOM      1  C1  ZIN AC000      -0.019   1.526   0.010  0.00  0.00     0.029 C 
ATOM      2  C2  ZIN AC000       0.002  -0.004   0.002  0.00  0.00     0.029 C 
ATOM      3  C3  ZIN AC000      -1.413  -0.575  -0.105  0.00  0.00     0.029 C 
ATOM      4  S4  ZIN AC000       1.091  -0.652  -1.336  0.00  0.00    -0.135 SA
ATOM      5  C5  ZIN AC000       2.633  -0.517  -0.354  0.00  0.00     0.160 C 
ATOM      6  C7  ZIN AC000       3.348  -1.844  -0.128  0.00  0.00     0.199 C 
ATOM      7  C20 ZIN AC000       2.955  -1.578   1.301  0.00  0.00     0.227 C 
ATOM      8  O21 ZIN AC000       3.228  -2.150   2.334  0.00  0.00    -0.277 OA
ATOM      9  N22 ZIN AC000       2.194  -0.470   1.047  0.00  0.00    -0.219 NA
ATOM     10  C23 ZIN AC000       0.745  -0.566   1.244  0.00  0.00     0.186 C 
ENDROOT
BRANCH   6  11
ATOM     11  N9  ZIN AC000       2.685  -3.001  -0.734  0.00  0.00    -0.344 N 
ATOM     12  C10 ZIN AC000       3.401  -4.096  -1.056  0.00  0.00     0.242 C 
ATOM     13  O11 ZIN AC000       4.595  -4.124  -0.843  0.00  0.00    -0.271 OA
ATOM     14  H34 ZIN AC000       1.730  -2.978  -0.904  0.00  0.00     0.163 HD
BRANCH  12  15
ATOM     15  C12 ZIN AC000       2.719  -5.286  -1.679  0.00  0.00     0.278 C 
BRANCH  15  16
ATOM     16  O13 ZIN AC000       3.683  -6.312  -1.926  0.00  0.00    -0.342 OA
BRANCH  16  17
ATOM     17  C14 ZIN AC000       3.228  -7.463  -2.490  0.00  0.00     0.069 A 
ATOM     18  C19 ZIN AC000       4.109  -8.501  -2.757  0.00  0.00     0.037 A 
ATOM     19  C18 ZIN AC000       3.644  -9.671  -3.325  0.00  0.00     0.003 A 
ATOM     20  C17 ZIN AC000       2.304  -9.803  -3.639  0.00  0.00     0.000 A 
ATOM     21  C16 ZIN AC000       1.425  -8.768  -3.379  0.00  0.00     0.003 A 
ATOM     22  C15 ZIN AC000       1.884  -7.598  -2.805  0.00  0.00     0.037 A 
ENDBRANCH  16  17
ENDBRANCH  15  16
ENDBRANCH  12  15
ENDBRANCH   6  11
BRANCH  10  23
ATOM     23  C25 ZIN AC000       0.354   0.217   2.472  0.00  0.00     0.193 C 
ATOM     24  O26 ZIN AC000       1.175   0.924   3.030  0.00  0.00    -0.647 OA
ATOM     25  O27 ZIN AC000      -0.782   0.142   2.907  0.00  0.00    -0.647 OA
ENDBRANCH  10  23
TORSDOF 5
