REMARK  0 active torsions:
REMARK  status: ('A' for Active; 'I' for Inactive)
REMARK       I    between atoms: N2_2  and  C4_4 
REMARK       I    between atoms: C4_4  and  N8_8 
REMARK       I    between atoms: N8_8  and  C9_9 
REMARK       I    between atoms: C9_9  and  N10_10 
ROOT
ATOM      1  C1  <0> d          -3.489  -0.510  -1.640  0.00  0.00     0.168 C 
ATOM      2  N2  <0> d          -2.367  -1.374  -1.265  0.00  0.00    -0.226 N 
ATOM      3  C3  <0> d          -2.268  -1.894   0.102  0.00  0.00     0.168 C 
ATOM      4  C4  <0> d          -1.407  -1.697  -2.194  0.00  0.00     0.687 C 
ATOM      5  N5  <0> d          -1.496  -1.235  -3.408  0.00  0.00    -0.234 N 
ATOM      6  H6  <0> d          -0.899  -1.566  -4.098  0.00  0.00     0.174 HD
ATOM      7  H7  <0> d          -2.158  -0.560  -3.623  0.00  0.00     0.174 HD
ATOM      8  N8  <0> d          -0.350  -2.511  -1.840  0.00  0.00    -0.024 N 
ATOM      9  C9  <0> d           0.770  -2.564  -2.632  0.00  0.00     0.683 C 
ATOM     10  N10 <0> d           0.904  -1.720  -3.653  0.00  0.00    -0.234 N 
ATOM     11  N11 <0> d           1.723  -3.458  -2.378  0.00  0.00    -0.234 N 
ATOM     12  H12 <0> d           2.515  -3.496  -2.938  0.00  0.00     0.174 HD
ATOM     13  H13 <0> d           1.625  -4.073  -1.635  0.00  0.00     0.174 HD
ATOM     14  H20 <0> d          -0.399  -3.046  -1.033  0.00  0.00     0.203 HD
ATOM     15  H21 <0> d           0.694  -0.781  -3.536  0.00  0.00     0.174 HD
ATOM     16  H22 <0> d           1.213  -2.045  -4.513  0.00  0.00     0.174 HD
ENDROOT
TORSDOF 0
