REMARK  9 active torsions:
REMARK  status: ('A' for Active; 'I' for Inactive)
REMARK    1  A    between atoms: O2_2  and  C3_3 
REMARK    2  A    between atoms: C8_8  and  C9_9 
REMARK    3  A    between atoms: C9_9  and  C10_10 
REMARK    4  A    between atoms: C20_20  and  C21_21 
REMARK    5  A    between atoms: C21_21  and  O23_23 
REMARK    6  A    between atoms: N25_25  and  C26_26 
REMARK    7  A    between atoms: C26_26  and  C28_27 
REMARK    8  A    between atoms: C26_26  and  C30_29 
REMARK    9  A    between atoms: C28_27  and  O29_28 
ROOT
ATOM      1  C3  ZIN AC000      -1.136  -0.488   0.618  0.00  0.00     0.077 A 
ATOM      2  C4  ZIN AC000      -2.317   0.205   0.422  0.00  0.00     0.067 A 
ATOM      3  C5  ZIN AC000      -3.515  -0.490   0.301  0.00  0.00     0.051 A 
ATOM      4  C6  ZIN AC000      -3.503  -1.894   0.380  0.00  0.00     0.043 A 
ATOM      5  C7  ZIN AC000      -2.302  -2.578   0.579  0.00  0.00     0.028 A 
ATOM      6  C8  ZIN AC000      -1.134  -1.880   0.690  0.00  0.00    -0.019 A 
ATOM      7  C18 ZIN AC000      -4.779  -2.619   0.250  0.00  0.00     0.202 A 
ATOM      8  O19 ZIN AC000      -4.827  -3.835   0.311  0.00  0.00    -0.286 OA
ATOM      9  C20 ZIN AC000      -5.993  -1.812   0.043  0.00  0.00     0.104 A 
ATOM     10  C24 ZIN AC000      -5.879  -0.439  -0.018  0.00  0.00     0.114 A 
ATOM     11  N25 ZIN AC000      -4.700   0.185   0.105  0.00  0.00    -0.348 N 
ENDROOT
BRANCH   6  12
ATOM     12  C9  ZIN AC000       0.162  -2.618   0.904  0.00  0.00     0.083 C 
BRANCH  12  13
ATOM     13  C10 ZIN AC000       0.472  -2.672   2.377  0.00  0.00    -0.013 A 
ATOM     14  C16 ZIN AC000      -0.073  -3.673   3.163  0.00  0.00     0.144 A 
ATOM     15  C14 ZIN AC000       0.217  -3.725   4.517  0.00  0.00     0.073 A 
ATOM     16  F17 ZIN AC000      -0.878  -4.605   2.608  0.00  0.00    -0.204 F 
ATOM     17  C13 ZIN AC000       1.042  -2.770   5.083  0.00  0.00     0.027 A 
ATOM     18 Cl15 ZIN AC000      -0.459  -4.983   5.503  0.00  0.00    -0.081 Cl
ATOM     19  C12 ZIN AC000       1.581  -1.768   4.298  0.00  0.00     0.002 A 
ATOM     20  C11 ZIN AC000       1.296  -1.719   2.946  0.00  0.00     0.011 A 
ENDBRANCH  12  13
ENDBRANCH   6  12
BRANCH   1  21
ATOM     21  O2  ZIN AC000       0.033   0.193   0.737  0.00  0.00    -0.355 OA
ATOM     22  C1  ZIN AC000      -0.036   1.618   0.654  0.00  0.00     0.210 C 
ENDBRANCH   1  21
BRANCH  11  23
ATOM     23  C26 ZIN AC000      -4.670   1.648   0.029  0.00  0.00     0.116 C 
BRANCH  23  24
ATOM     24  C28 ZIN AC000      -5.416   2.237   1.227  0.00  0.00     0.190 C 
BRANCH  24  25
ATOM     25  O29 ZIN AC000      -6.796   1.873   1.155  0.00  0.00    -0.399 OA
ATOM     26  H47 ZIN AC000      -7.332   2.213   1.885  0.00  0.00     0.209 HD
ENDBRANCH  24  25
ENDBRANCH  23  24
BRANCH  23  27
ATOM     27  C30 ZIN AC000      -5.343   2.105  -1.267  0.00  0.00     0.003 C 
ATOM     28  C31 ZIN AC000      -5.240   3.627  -1.386  0.00  0.00     0.011 C 
ATOM     29  C32 ZIN AC000      -4.647   1.452  -2.462  0.00  0.00     0.011 C 
ENDBRANCH  23  27
ENDBRANCH  11  23
BRANCH   9  30
ATOM     30  C21 ZIN AC000      -7.305  -2.460  -0.096  0.00  0.00     0.181 C 
ATOM     31  O22 ZIN AC000      -8.301  -1.784  -0.266  0.00  0.00    -0.646 OA
BRANCH  30  32
ATOM     32  O23 ZIN AC000      -7.404  -3.803  -0.034  0.00  0.00    -0.772 OA
ATOM     33  H43 ZIN AC000      -8.288  -4.183  -0.131  0.00  0.00     0.167 HD
ENDBRANCH  30  32
ENDBRANCH   9  30
TORSDOF 9
