REMARK  3 active torsions:
REMARK  status: ('A' for Active; 'I' for Inactive)
REMARK    1  A    between atoms: C11_11  and  C12_12 
REMARK    2  A    between atoms: C11_11  and  C17_17 
REMARK    3  A    between atoms: C13_13  and  C14_14 
ROOT
ATOM      1  O1  <0> d           0.002  -0.004   0.002  0.00  0.00    -0.238 OA
ATOM      2  C2  <0> d          -0.014   1.211   0.009  0.00  0.00     0.367 C 
ATOM      3  N3  <0> d          -1.194   1.862   0.029  0.00  0.00    -0.302 N 
ATOM      4  C4  <0> d          -1.217   3.253   0.185  0.00  0.00     0.047 A 
ATOM      5  C5  <0> d          -2.389   3.969  -0.007  0.00  0.00     0.032 A 
ATOM      6  C6  <0> d          -2.385   5.344   0.138  0.00  0.00     0.026 A 
ATOM      7  C7  <0> d          -1.216   6.004   0.473  0.00  0.00     0.034 A 
ATOM      8 Cl8  <0> d          -1.216   7.731   0.647  0.00  0.00    -0.084 Cl
ATOM      9  C9  <0> d          -0.046   5.290   0.671  0.00  0.00     0.037 A 
ATOM     10  C10 <0> d          -0.047   3.918   0.534  0.00  0.00     0.027 A 
ATOM     11  C11 <0> d           1.208   3.118   0.777  0.00  0.00     0.261 C 
ATOM     12  O21 <0> d           1.146   1.893   0.001  0.00  0.00    -0.265 OA
ATOM     13  H22 <0> d          -2.024   1.369  -0.064  0.00  0.00     0.171 HD
ENDROOT
BRANCH  11  14
ATOM     14  C12 <0> d           2.382   3.905   0.366  0.00  0.00    -0.053 C 
ATOM     15  C13 <0> d           3.318   4.533   0.038  0.00  0.00    -0.098 C 
BRANCH  15  16
ATOM     16  C14 <0> d           4.492   5.320  -0.372  0.00  0.00     0.065 A 
ATOM     17  C16 <0> d           5.869   4.676  -0.203  0.00  0.00     0.018 A 
ATOM     18  C15 <0> d           5.435   5.809   0.729  0.00  0.00     0.018 A 
ENDBRANCH  15  16
ENDBRANCH  11  14
BRANCH  11  19
ATOM     19  C17 <0> d           1.316   2.774   2.264  0.00  0.00     0.435 C 
ATOM     20  F18 <0> d           0.202   2.022   2.651  0.00  0.00    -0.166 F 
ATOM     21  F19 <0> d           2.481   2.032   2.488  0.00  0.00    -0.166 F 
ATOM     22  F20 <0> d           1.365   3.955   3.013  0.00  0.00    -0.166 F 
ENDBRANCH  11  19
TORSDOF 3
