REMARK  4 active torsions:
REMARK  status: ('A' for Active; 'I' for Inactive)
REMARK    1  A    between atoms: O2_2  and  C3_3 
REMARK    2  A    between atoms: C8_8  and  C9_9 
REMARK    3  A    between atoms: C9_9  and  C10_10 
REMARK    4  A    between atoms: C10_10  and  C11_11 
ROOT
ATOM      1  C3  <0> d           0.606  -0.607  -1.056  0.00  0.00     0.069 A 
ATOM      2  C4  <0> d           1.174   0.177  -2.064  0.00  0.00     0.037 A 
ATOM      3  C5  <0> d           1.785  -0.398  -3.135  0.00  0.00     0.015 A 
ATOM      4  C6  <0> d           1.849  -1.798  -3.233  0.00  0.00    -0.025 A 
ATOM      5  C7  <0> d           2.473  -2.425  -4.325  0.00  0.00     0.019 A 
ATOM      6  C8  <0> d           2.517  -3.784  -4.388  0.00  0.00    -0.057 A 
ATOM      7  C14 <0> d           1.952  -4.567  -3.383  0.00  0.00     0.008 A 
ATOM      8  C15 <0> d           1.339  -3.996  -2.311  0.00  0.00     0.013 A 
ATOM      9  C16 <0> d           1.274  -2.595  -2.211  0.00  0.00    -0.023 A 
ATOM     10  C17 <0> d           0.654  -1.971  -1.116  0.00  0.00     0.049 A 
ENDROOT
BRANCH   6  11
ATOM     11  C9  <0> d           3.188  -4.451  -5.560  0.00  0.00     0.046 C 
BRANCH  11  12
ATOM     12  C10 <0> d           4.669  -4.670  -5.245  0.00  0.00     0.082 C 
BRANCH  12  13
ATOM     13  C11 <0> d           5.339  -5.337  -6.417  0.00  0.00     0.123 C 
ATOM     14  C12 <0> d           6.809  -5.664  -6.359  0.00  0.00     0.091 C 
ATOM     15  O13 <0> d           4.699  -5.611  -7.404  0.00  0.00    -0.298 OA
ENDBRANCH  12  13
ENDBRANCH  11  12
ENDBRANCH   6  11
BRANCH   1  16
ATOM     16  O2  <0> d           0.002  -0.004   0.002  0.00  0.00    -0.356 OA
ATOM     17  C1  <0> d          -0.017   1.425   0.010  0.00  0.00     0.210 C 
ENDBRANCH   1  16
TORSDOF 4
