REMARK  1 active torsions:
REMARK  status: ('A' for Active; 'I' for Inactive)
REMARK    1  A    between atoms: C5_5  and  C6_6 
ROOT
ATOM      1  C6  <0> d           0.060  -4.244  -0.021  0.00  0.00     0.022 C 
ATOM      2  C7  <0> d           0.178  -4.926   1.142  0.00  0.00    -0.006 C 
ATOM      3  C8  <0> d           0.318  -6.333   1.290  0.00  0.00     0.165 C 
ATOM      4  O9  <0> d           0.356  -7.155   0.397  0.00  0.00    -0.292 OA
ATOM      5  C10 <0> d           0.413  -6.612   2.796  0.00  0.00     0.029 C 
ATOM      6  C11 <0> d           1.033  -7.953   3.195  0.00  0.00     0.025 C 
ATOM      7  C12 <0> d          -1.022  -6.315   3.333  0.00  0.00     0.018 C 
ATOM      8  C13 <0> d          -1.175  -4.783   3.172  0.00  0.00     0.011 C 
ATOM      9  C14 <0> d           0.192  -4.328   2.555  0.00  0.00     0.031 C 
ATOM     10  C16 <0> d           1.171  -5.321   3.271  0.00  0.00    -0.025 C 
ATOM     11  C17 <0> d           1.149  -5.164   4.792  0.00  0.00     0.016 C 
ATOM     12  C18 <0> d           2.592  -5.243   2.707  0.00  0.00     0.016 C 
ENDROOT
BRANCH   1  13
ATOM     13  C5  <0> d          -0.234  -2.804  -0.003  0.00  0.00    -0.036 A 
ATOM     14  C4  <0> d           0.102  -2.003  -1.101  0.00  0.00     0.012 A 
ATOM     15  C3  <0> d          -0.177  -0.653  -1.075  0.00  0.00     0.007 A 
ATOM     16  C2  <0> d          -0.788  -0.090   0.032  0.00  0.00    -0.062 A 
ATOM     17  C1  <0> d          -1.090   1.387   0.051  0.00  0.00     0.048 C 
ATOM     18  C20 <0> d          -1.119  -0.874   1.123  0.00  0.00     0.007 A 
ATOM     19  C19 <0> d          -0.851  -2.226   1.112  0.00  0.00     0.012 A 
ENDBRANCH   1  13
TORSDOF 1
