REMARK  5 active torsions:
REMARK  status: ('A' for Active; 'I' for Inactive)
REMARK    1  A    between atoms: O1_1  and  C2_2 
REMARK    2  A    between atoms: C2_2  and  C4_3 
REMARK    3  A    between atoms: C2_2  and  C22_21 
REMARK    4  A    between atoms: C9_8  and  C10_9 
REMARK    5  A    between atoms: C16_15  and  C17_16 
ROOT
ATOM      1  C4  <0> d           0.707  -0.490  -1.238  0.00  0.00    -0.013 A 
ATOM      2  C5  <0> d           0.432  -1.761  -1.775  0.00  0.00     0.002 A 
ATOM      3  C6  <0> d          -0.506  -2.620  -1.179  0.00  0.00     0.014 A 
ATOM      4  C7  <0> d          -0.744  -3.842  -1.730  0.00  0.00     0.002 A 
ATOM      5  C8  <0> d          -0.070  -4.253  -2.878  0.00  0.00     0.019 A 
ATOM      6  C9  <0> d           0.845  -3.447  -3.482  0.00  0.00     0.077 A 
ATOM      7  C14 <0> d           1.119  -2.177  -2.943  0.00  0.00     0.083 A 
ATOM      8  N15 <0> d           2.012  -1.363  -3.515  0.00  0.00    -0.243 NA
ATOM      9  C16 <0> d           2.270  -0.178  -3.017  0.00  0.00     0.141 A 
ATOM     10  C21 <0> d           1.628   0.293  -1.875  0.00  0.00     0.047 A 
ENDROOT
BRANCH   1  11
ATOM     11  C2  <0> d           0.002  -0.004   0.002  0.00  0.00     0.182 C 
BRANCH  11  12
ATOM     12  O1  <0> d          -0.017   1.425   0.010  0.00  0.00    -0.389 OA
ATOM     13  H31 <0> d           0.861   1.830   0.004  0.00  0.00     0.210 HD
ENDBRANCH  11  12
BRANCH  11  14
ATOM     14  C22 <0> d           0.742  -0.511   1.242  0.00  0.00     0.219 C 
ATOM     15  N28 <0> d           2.119  -0.004   1.230  0.00  0.00    -0.068 N 
ATOM     16  C27 <0> d           2.860  -0.547   2.375  0.00  0.00     0.233 C 
ATOM     17  H29 <0> d           2.572  -0.285   0.373  0.00  0.00     0.277 HD
ATOM     18  H30 <0> d           2.106   1.004   1.287  0.00  0.00     0.277 HD
ATOM     19  C26 <0> d           2.224  -0.056   3.677  0.00  0.00     0.027 C 
ATOM     20  C25 <0> d           0.768  -0.528   3.738  0.00  0.00     0.004 C 
ATOM     21  C24 <0> d           0.025  -0.018   2.500  0.00  0.00     0.036 C 
ENDBRANCH  11  14
ENDBRANCH   1  11
BRANCH   9  22
ATOM     22  C17 <0> d           3.286   0.700  -3.702  0.00  0.00     0.434 C 
ATOM     23  F18 <0> d           3.713   0.083  -4.883  0.00  0.00    -0.165 F 
ATOM     24  F19 <0> d           2.705   1.936  -4.005  0.00  0.00    -0.165 F 
ATOM     25  F20 <0> d           4.381   0.894  -2.855  0.00  0.00    -0.165 F 
ENDBRANCH   9  22
BRANCH   6  26
ATOM     26  C10 <0> d           1.562  -3.913  -4.723  0.00  0.00     0.419 C 
ATOM     27  F11 <0> d           1.122  -5.197  -5.060  0.00  0.00    -0.166 F 
ATOM     28  F12 <0> d           1.288  -3.034  -5.777  0.00  0.00    -0.166 F 
ATOM     29  F13 <0> d           2.940  -3.939  -4.483  0.00  0.00    -0.166 F 
ENDBRANCH   6  26
TORSDOF 5
