REMARK  3 active torsions:
REMARK  status: ('A' for Active; 'I' for Inactive)
REMARK       I    between atoms: N6_5  and  C7_6 
REMARK    1  A    between atoms: C7_6  and  C9_8 
REMARK    2  A    between atoms: C13_12  and  N15_13 
REMARK    3  A    between atoms: N15_13  and  C17_15 
ROOT
ATOM      1  C9  <0> d          -1.969  -4.195   2.280  0.00  0.00     0.226 C 
ATOM      2  C10 <0> d          -2.087  -5.098   3.436  0.00  0.00     0.068 C 
ATOM      3  N11 <0> d          -2.178  -5.795   4.329  0.00  0.00    -0.197 NA
ENDROOT
BRANCH   1   4
ATOM      4  C7  <0> d          -0.602  -3.561   2.275  0.00  0.00     0.232 C 
ATOM      5  N6  <0> d          -0.266  -2.692   1.301  0.00  0.00    -0.349 N 
ATOM      6  C5  <0> d          -1.221  -2.352   0.238  0.00  0.00     0.126 C 
ATOM      7  C12 <0> d           1.063  -2.066   1.282  0.00  0.00     0.151 C 
ATOM      8  C4  <0> d          -1.368  -0.829   0.175  0.00  0.00     0.026 C 
ATOM      9  C2  <0> d           0.014  -0.194   0.004  0.00  0.00     0.007 C 
ATOM     10  C1  <0> d          -0.131   1.326  -0.095  0.00  0.00     0.012 C 
ATOM     11  C13 <0> d           0.891  -0.545   1.208  0.00  0.00     0.107 C 
ATOM     12  O8  <0> d           0.196  -3.833   3.147  0.00  0.00    -0.272 OA
BRANCH  11  13
ATOM     13  N15 <0> d           0.253  -0.064   2.436  0.00  0.00    -0.364 N 
ATOM     14  C16 <0> d           0.058   1.372   2.646  0.00  0.00     0.152 C 
BRANCH  13  15
ATOM     15  C17 <0> d          -0.166  -0.967   3.397  0.00  0.00     0.118 A 
ATOM     16  N25 <0> d          -1.435  -1.360   3.456  0.00  0.00    -0.336 N 
ATOM     17  C24 <0> d          -1.838  -2.225   4.369  0.00  0.00     0.211 A 
ATOM     18  H26 <0> d          -2.073  -1.011   2.814  0.00  0.00     0.168 HD
ATOM     19  N23 <0> d          -1.027  -2.738   5.269  0.00  0.00    -0.225 NA
ATOM     20  C22 <0> d           0.261  -2.402   5.294  0.00  0.00     0.142 A 
ATOM     21  C18 <0> d           0.737  -1.486   4.337  0.00  0.00     0.055 A 
ATOM     22  N21 <0> d           1.325  -2.751   6.081  0.00  0.00    -0.350 N 
ATOM     23  C19 <0> d           2.162  -1.315   4.609  0.00  0.00     0.036 A 
ATOM     24  C20 <0> d           2.454  -2.096   5.662  0.00  0.00     0.091 A 
ATOM     25  H43 <0> d           1.286  -3.372   6.825  0.00  0.00     0.166 HD
ENDBRANCH  13  15
ENDBRANCH  11  13
ENDBRANCH   1   4
TORSDOF 3
