REMARK  8 active torsions:
REMARK  status: ('A' for Active; 'I' for Inactive)
REMARK    1  A    between atoms: O2_2  and  C3_3 
REMARK    2  A    between atoms: C4_4  and  O5_5 
REMARK    3  A    between atoms: C15_15  and  O16_16 
REMARK    4  A    between atoms: O16_16  and  C17_17 
REMARK    5  A    between atoms: C20_20  and  N21_21 
REMARK       I    between atoms: N21_21  and  C22_22 
REMARK    6  A    between atoms: C22_22  and  C24_24 
REMARK    7  A    between atoms: C24_24  and  C25_25 
REMARK       I    between atoms: C25_25  and  N27_27 
REMARK    8  A    between atoms: N27_27  and  C28_28 
ROOT
ATOM      1  C17 ZIN AC000       0.168  -7.926  -7.610  0.00  0.00     0.076 A 
ATOM      2  C18 ZIN AC000       0.254  -7.206  -8.793  0.00  0.00     0.039 A 
ATOM      3  C19 ZIN AC000       1.471  -7.066  -9.429  0.00  0.00     0.032 A 
ATOM      4  C20 ZIN AC000       2.610  -7.646  -8.885  0.00  0.00     0.034 A 
ATOM      5  C37 ZIN AC000       2.523  -8.366  -7.701  0.00  0.00     0.032 A 
ATOM      6  C38 ZIN AC000       1.306  -8.501  -7.063  0.00  0.00     0.039 A 
ENDROOT
BRANCH   4   7
ATOM      7  N21 ZIN AC000       3.845  -7.504  -9.530  0.00  0.00    -0.326 N 
ATOM      8  C22 ZIN AC000       4.752  -8.499  -9.476  0.00  0.00     0.240 C 
ATOM      9  O23 ZIN AC000       4.519  -9.497  -8.827  0.00  0.00    -0.272 OA
ATOM     10  H51 ZIN AC000       4.048  -6.689 -10.016  0.00  0.00     0.169 HD
BRANCH   8  11
ATOM     11  C24 ZIN AC000       6.056  -8.372 -10.221  0.00  0.00     0.122 A 
ATOM     12  C36 ZIN AC000       6.960  -9.605 -10.277  0.00  0.00     0.031 A 
ATOM     13  C35 ZIN AC000       7.346  -8.413  -9.399  0.00  0.00     0.031 A 
BRANCH  11  14
ATOM     14  C25 ZIN AC000       6.028  -7.474 -11.430  0.00  0.00     0.240 C 
ATOM     15  O26 ZIN AC000       6.404  -7.892 -12.505  0.00  0.00    -0.272 OA
ATOM     16  N27 ZIN AC000       5.586  -6.205 -11.318  0.00  0.00    -0.326 N 
ATOM     17  H52 ZIN AC000       5.339  -5.853 -10.448  0.00  0.00     0.169 HD
BRANCH  16  18
ATOM     18  C28 ZIN AC000       5.483  -5.396 -12.456  0.00  0.00     0.034 A 
ATOM     19  C34 ZIN AC000       5.916  -4.078 -12.412  0.00  0.00     0.032 A 
ATOM     20  C33 ZIN AC000       5.819  -3.283 -13.538  0.00  0.00     0.044 A 
ATOM     21  C31 ZIN AC000       5.280  -3.797 -14.705  0.00  0.00     0.116 A 
ATOM     22  C30 ZIN AC000       4.842  -5.110 -14.748  0.00  0.00     0.044 A 
ATOM     23  F32 ZIN AC000       5.180  -3.016 -15.803  0.00  0.00    -0.206 F 
ATOM     24  C29 ZIN AC000       4.942  -5.910 -13.627  0.00  0.00     0.032 A 
ENDBRANCH  16  18
ENDBRANCH  11  14
ENDBRANCH   8  11
ENDBRANCH   4   7
BRANCH   1  25
ATOM     25  O16 ZIN AC000      -1.031  -8.064  -6.984  0.00  0.00    -0.310 OA
BRANCH  25  26
ATOM     26  C15 ZIN AC000      -1.900  -8.985  -7.469  0.00  0.00     0.090 A 
ATOM     27  C8  ZIN AC000      -3.133  -9.233  -6.825  0.00  0.00     0.027 A 
ATOM     28  C7  ZIN AC000      -3.500  -8.537  -5.663  0.00  0.00     0.056 A 
ATOM     29  C9  ZIN AC000      -4.008 -10.204  -7.370  0.00  0.00     0.048 A 
ATOM     30  C4  ZIN AC000      -4.699  -8.803  -5.066  0.00  0.00     0.102 A 
ATOM     31  C3  ZIN AC000      -5.566  -9.764  -5.603  0.00  0.00     0.103 A 
ATOM     32  C10 ZIN AC000      -5.232 -10.459  -6.729  0.00  0.00     0.070 A 
ATOM     33  N11 ZIN AC000      -3.660 -10.869  -8.478  0.00  0.00    -0.365 N 
ATOM     34  H12 ZIN AC000      -4.267 -11.532  -8.842  0.00  0.00     0.165 HD
ATOM     35  C13 ZIN AC000      -2.518 -10.647  -9.084  0.00  0.00     0.091 A 
ATOM     36  C14 ZIN AC000      -1.607  -9.710  -8.611  0.00  0.00     0.055 A 
BRANCH  30  37
ATOM     37  O5  ZIN AC000      -5.054  -8.129  -3.940  0.00  0.00    -0.353 OA
ATOM     38  C6  ZIN AC000      -4.127  -7.162  -3.443  0.00  0.00     0.210 C 
ENDBRANCH  30  37
BRANCH  31  39
ATOM     39  O2  ZIN AC000      -6.754 -10.011  -4.991  0.00  0.00    -0.353 OA
ATOM     40  C1  ZIN AC000      -7.594 -11.006  -5.581  0.00  0.00     0.210 C 
ENDBRANCH  31  39
ENDBRANCH  25  26
ENDBRANCH   1  25
TORSDOF 8
