REMARK  0 active torsions:
REMARK  status: ('A' for Active; 'I' for Inactive)
ROOT
ATOM      1  O1  ZIN AC000       0.002  -0.004   0.002  0.00  0.00    -0.238 OA
ATOM      2  C2  ZIN AC000      -0.014   1.212   0.009  0.00  0.00     0.370 A 
ATOM      3  N3  ZIN AC000      -1.125   1.975   0.029  0.00  0.00    -0.300 N 
ATOM      4  C4  ZIN AC000      -0.718   3.309   0.031  0.00  0.00     0.072 A 
ATOM      5  C5  ZIN AC000      -1.403   4.513   0.047  0.00  0.00     0.056 A 
ATOM      6  C6  ZIN AC000      -0.701   5.704   0.043  0.00  0.00     0.036 A 
ATOM      7 Cl7  ZIN AC000      -1.556   7.214   0.063  0.00  0.00    -0.084 Cl
ATOM      8  C8  ZIN AC000       0.684   5.695   0.023  0.00  0.00     0.026 A 
ATOM      9  C9  ZIN AC000       1.373   4.497   0.006  0.00  0.00     0.041 A 
ATOM     10  C10 ZIN AC000       0.677   3.299   0.010  0.00  0.00     0.107 A 
ATOM     11  O11 ZIN AC000       1.071   2.002   0.003  0.00  0.00    -0.259 OA
ATOM     12  H12 ZIN AC000      -2.041   1.655   0.041  0.00  0.00     0.171 HD
ENDROOT
TORSDOF 0
