REMARK  3 active torsions:
REMARK  status: ('A' for Active; 'I' for Inactive)
REMARK    1  A    between atoms: C2_2  and  O4_3 
REMARK    2  A    between atoms: C2_2  and  C5_4 
REMARK    3  A    between atoms: C5_4  and  O6_5 
ROOT
ATOM      1  C1  <0> d          -0.019   1.526   0.010  0.00  0.00     0.041 C 
ATOM      2  C2  <0> d           0.002  -0.004   0.002  0.00  0.00     0.137 C 
ENDROOT
BRANCH   2   3
ATOM      3  O4  <0> d           0.671  -0.465  -1.174  0.00  0.00    -0.394 OA
ATOM      4  H10 <0> d           0.256  -0.181  -1.999  0.00  0.00     0.210 HD
ENDBRANCH   2   3
BRANCH   2   5
ATOM      5  C5  <0> d           0.742  -0.511   1.242  0.00  0.00     0.195 C 
BRANCH   5   6
ATOM      6  O6  <0> d           2.044   0.076   1.292  0.00  0.00    -0.398 OA
ATOM      7  H13 <0> d           2.571  -0.201   2.054  0.00  0.00     0.209 HD
ENDBRANCH   5   6
ENDBRANCH   2   5
TORSDOF 3
