REMARK  4 active torsions:
REMARK  status: ('A' for Active; 'I' for Inactive)
REMARK    1  A    between atoms: O2_2  and  C3_3 
REMARK    2  A    between atoms: C3_3  and  C5_5 
REMARK    3  A    between atoms: C5_5  and  C7_6 
REMARK    4  A    between atoms: C5_5  and  C13_12 
ROOT
ATOM      1  C5  <0> d          -1.244  -2.135   0.003  0.00  0.00     0.149 C 
ENDROOT
BRANCH   1   2
ATOM      2  C3  <0> d          -1.426  -0.643   0.112  0.00  0.00     0.269 C 
ATOM      3  O4  <0> d          -2.536  -0.167   0.096  0.00  0.00    -0.264 OA
BRANCH   2   4
ATOM      4  O2  <0> d          -0.354   0.156   0.228  0.00  0.00    -0.326 OA
ATOM      5  C1  <0> d          -0.604   1.583   0.329  0.00  0.00     0.213 C 
ENDBRANCH   2   4
ENDBRANCH   1   2
BRANCH   1   6
ATOM      6  C7  <0> d          -2.592  -2.799  -0.116  0.00  0.00    -0.043 A 
ATOM      7  C12 <0> d          -2.939  -3.455  -1.282  0.00  0.00     0.008 A 
ATOM      8  C11 <0> d          -4.174  -4.066  -1.389  0.00  0.00     0.001 A 
ATOM      9  C10 <0> d          -5.066  -4.014  -0.334  0.00  0.00     0.000 A 
ATOM     10  C9  <0> d          -4.720  -3.354   0.831  0.00  0.00     0.001 A 
ATOM     11  C8  <0> d          -3.483  -2.745   0.939  0.00  0.00     0.008 A 
ENDBRANCH   1   6
BRANCH   1  12
ATOM     12  C13 <0> d          -0.528  -2.655   1.251  0.00  0.00     0.203 C 
ATOM     13  N19 <0> d          -0.474  -4.121   1.209  0.00  0.00    -0.070 N 
ATOM     14  C18 <0> d           0.142  -4.633   2.438  0.00  0.00     0.232 C 
ATOM     15  H20 <0> d          -1.410  -4.488   1.125  0.00  0.00     0.277 HD
ATOM     16  H21 <0> d           0.073  -4.414   0.413  0.00  0.00     0.277 HD
ATOM     17  C17 <0> d           1.590  -4.144   2.529  0.00  0.00     0.027 C 
ATOM     18  C16 <0> d           1.606  -2.613   2.546  0.00  0.00     0.004 C 
ATOM     19  C15 <0> d           0.893  -2.091   1.295  0.00  0.00     0.034 C 
ENDBRANCH   1  12
TORSDOF 4
