REMARK  0 active torsions:
REMARK  status: ('A' for Active; 'I' for Inactive)
ROOT
ATOM      1  C1  ZIN AC000      -0.018   1.465   0.010  0.00  0.00     0.269 C 
ATOM      2  N2  ZIN AC000       0.002  -0.004   0.002  0.00  0.00    -0.072 N 
ATOM      3  H3  ZIN AC000      -0.943  -0.358   0.009  0.00  0.00     0.279 HD
ATOM      4  C4  ZIN AC000       0.706  -0.486  -1.198  0.00  0.00     0.249 C 
ATOM      5  C5  ZIN AC000       2.089   0.156  -1.226  0.00  0.00     0.125 C 
ATOM      6  N6  ZIN AC000       2.860  -0.210  -0.014  0.00  0.00    -0.255 NA
ATOM      7  C7  ZIN AC000       4.148   0.229  -0.235  0.00  0.00     0.112 A 
ATOM      8  N8  ZIN AC000       4.299   0.698  -1.490  0.00  0.00    -0.248 NA
ATOM      9  C9  ZIN AC000       5.442   1.096  -1.987  0.00  0.00     0.118 A 
ATOM     10  C10 ZIN AC000       6.582   1.041  -1.210  0.00  0.00     0.020 A 
ATOM     11  C11 ZIN AC000       6.470   0.604   0.092  0.00  0.00     0.012 A 
ATOM     12  C12 ZIN AC000       5.218   0.225   0.613  0.00  0.00    -0.013 A 
ATOM     13  C13 ZIN AC000       5.250  -0.040   2.061  0.00  0.00     0.081 C 
ATOM     14  C14 ZIN AC000       4.061  -0.334   2.881  0.00  0.00    -0.046 A 
ATOM     15  C15 ZIN AC000       4.369  -0.592   4.230  0.00  0.00     0.008 A 
ATOM     16  C16 ZIN AC000       3.413  -0.961   5.141  0.00  0.00     0.001 A 
ATOM     17  C17 ZIN AC000       2.101  -1.097   4.725  0.00  0.00     0.001 A 
ATOM     18  C18 ZIN AC000       1.788  -0.817   3.418  0.00  0.00     0.009 A 
ATOM     19  C19 ZIN AC000       2.758  -0.393   2.498  0.00  0.00    -0.032 A 
ATOM     20  C20 ZIN AC000       2.167   0.042   1.193  0.00  0.00     0.124 C 
ATOM     21  C22 ZIN AC000       0.725  -0.496   1.177  0.00  0.00     0.259 C 
ENDROOT
TORSDOF 0
