REMARK  9 active torsions:
REMARK  status: ('A' for Active; 'I' for Inactive)
REMARK    1  A    between atoms: C2_2  and  C4_3 
REMARK    2  A    between atoms: C2_2  and  N12_11 
REMARK    3  A    between atoms: C4_3  and  C5_4 
REMARK    4  A    between atoms: C5_4  and  C6_5 
REMARK    5  A    between atoms: N12_11  and  C15_14 
REMARK    6  A    between atoms: C15_14  and  C16_15 
REMARK    7  A    between atoms: C16_15  and  O18_16 
REMARK    8  A    between atoms: C16_15  and  C19_17 
REMARK    9  A    between atoms: C24_22  and  C25_23 
REMARK       I    between atoms: C25_23  and  N26_24 
ROOT
ATOM      1  C16 ZIN AC000       2.816  -0.564  -2.418  0.00  0.00     0.176 C 
ENDROOT
BRANCH   1   2
ATOM      2  C15 ZIN AC000       2.100  -0.070  -1.159  0.00  0.00     0.269 C 
BRANCH   2   3
ATOM      3  N12 ZIN AC000       0.690  -0.478  -1.207  0.00  0.00    -0.069 N 
ATOM      4  H13 ZIN AC000       0.632  -1.484  -1.254  0.00  0.00     0.277 HD
ATOM      5  H14 ZIN AC000       0.251  -0.077  -2.022  0.00  0.00     0.277 HD
BRANCH   3   6
ATOM      6  C2  ZIN AC000       0.002  -0.004   0.002  0.00  0.00     0.182 C 
ATOM      7  C1  ZIN AC000      -0.019   1.526   0.010  0.00  0.00     0.040 C 
BRANCH   6   8
ATOM      8  C4  ZIN AC000      -1.433  -0.534   0.013  0.00  0.00     0.037 C 
BRANCH   8   9
ATOM      9  C5  ZIN AC000      -1.413  -2.059   0.130  0.00  0.00     0.040 C 
BRANCH   9  10
ATOM     10  C6  ZIN AC000      -2.827  -2.581   0.141  0.00  0.00    -0.058 A 
ATOM     11  C11 ZIN AC000      -3.451  -2.911  -1.048  0.00  0.00     0.007 A 
ATOM     12  C10 ZIN AC000      -4.746  -3.394  -1.037  0.00  0.00     0.001 A 
ATOM     13  C9  ZIN AC000      -5.421  -3.537   0.161  0.00  0.00     0.000 A 
ATOM     14  C8  ZIN AC000      -4.799  -3.201   1.349  0.00  0.00     0.001 A 
ATOM     15  C7  ZIN AC000      -3.502  -2.723   1.339  0.00  0.00     0.007 A 
ENDBRANCH   9  10
ENDBRANCH   8   9
ENDBRANCH   6   8
ENDBRANCH   3   6
ENDBRANCH   2   3
ENDBRANCH   1   2
BRANCH   1  16
ATOM     16  O18 ZIN AC000       2.272   0.093  -3.564  0.00  0.00    -0.389 OA
ATOM     17  H43 ZIN AC000       2.360   1.056  -3.545  0.00  0.00     0.210 HD
ENDBRANCH   1  16
BRANCH   1  18
ATOM     18  C19 ZIN AC000       4.287  -0.254  -2.313  0.00  0.00    -0.027 A 
ATOM     19  C28 ZIN AC000       5.172  -1.242  -1.938  0.00  0.00     0.029 A 
ATOM     20  C24 ZIN AC000       6.536  -0.957  -1.846  0.00  0.00     0.068 A 
ATOM     21  C22 ZIN AC000       6.994   0.338  -2.126  0.00  0.00     0.122 A 
ATOM     22  C21 ZIN AC000       6.089   1.321  -2.496  0.00  0.00     0.041 A 
ATOM     23  O23 ZIN AC000       8.316   0.627  -2.035  0.00  0.00    -0.191 OA
ATOM     24  C20 ZIN AC000       4.744   1.025  -2.588  0.00  0.00     0.012 A 
BRANCH  20  25
ATOM     25  C25 ZIN AC000       7.489  -2.012  -1.452  0.00  0.00     0.252 C 
ATOM     26  N26 ZIN AC000       7.045  -3.256  -1.183  0.00  0.00    -0.366 N 
ATOM     27  H46 ZIN AC000       6.098  -3.458  -1.250  0.00  0.00     0.159 HD
ATOM     28  H47 ZIN AC000       7.671  -3.949  -0.924  0.00  0.00     0.159 HD
ATOM     29  O27 ZIN AC000       8.676  -1.759  -1.368  0.00  0.00    -0.268 OA
ENDBRANCH  20  25
ENDBRANCH   1  18
TORSDOF 9
