REMARK  6 active torsions:
REMARK  status: ('A' for Active; 'I' for Inactive)
REMARK    1  A    between atoms: N2_2  and  C5_5 
REMARK    2  A    between atoms: C5_5  and  C6_6 
REMARK    3  A    between atoms: C6_6  and  C7_7 
REMARK    4  A    between atoms: C7_7  and  O9_8 
REMARK    5  A    between atoms: C7_7  and  C20_19 
REMARK    6  A    between atoms: O9_8  and  C10_9 
ROOT
ATOM      1  C7  ZIN AC000      -2.789  -2.563   0.013  0.00  0.00     0.170 C 
ENDROOT
BRANCH   1   2
ATOM      2  C6  ZIN AC000      -1.289  -2.276   0.111  0.00  0.00     0.065 C 
BRANCH   2   3
ATOM      3  C5  ZIN AC000      -1.067  -0.770   0.262  0.00  0.00     0.234 C 
BRANCH   3   4
ATOM      4  N2  ZIN AC000       0.373  -0.494   0.356  0.00  0.00    -0.079 N 
ATOM      5  C1  ZIN AC000       0.586   0.952   0.501  0.00  0.00     0.266 C 
ATOM      6  H3  ZIN AC000       0.833  -0.820  -0.480  0.00  0.00     0.276 HD
ATOM      7  H4  ZIN AC000       0.755  -0.972   1.158  0.00  0.00     0.276 HD
ENDBRANCH   3   4
ENDBRANCH   2   3
ENDBRANCH   1   2
BRANCH   1   8
ATOM      8  O9  ZIN AC000      -3.423  -2.209   1.244  0.00  0.00    -0.340 OA
BRANCH   8   9
ATOM      9  C10 ZIN AC000      -4.747  -1.914   1.192  0.00  0.00     0.080 A 
ATOM     10  C19 ZIN AC000      -5.442  -2.068   0.025  0.00  0.00     0.038 A 
ATOM     11  C18 ZIN AC000      -6.801  -1.774  -0.043  0.00  0.00     0.004 A 
ATOM     12  C17 ZIN AC000      -7.476  -1.316   1.047  0.00  0.00     0.012 A 
ATOM     13  C16 ZIN AC000      -6.797  -1.138   2.265  0.00  0.00    -0.023 A 
ATOM     14  C11 ZIN AC000      -5.415  -1.441   2.341  0.00  0.00     0.007 A 
ATOM     15  C15 ZIN AC000      -7.462  -0.667   3.409  0.00  0.00     0.012 A 
ATOM     16  C12 ZIN AC000      -4.736  -1.263   3.557  0.00  0.00     0.015 A 
ATOM     17  C13 ZIN AC000      -5.413  -0.804   4.645  0.00  0.00     0.001 A 
ATOM     18  C14 ZIN AC000      -6.772  -0.506   4.571  0.00  0.00     0.001 A 
ENDBRANCH   8   9
ENDBRANCH   1   8
BRANCH   1  19
ATOM     19  C20 ZIN AC000      -3.002  -4.030  -0.258  0.00  0.00     0.012 A 
ATOM     20  S24 ZIN AC000      -3.065  -5.290   0.968  0.00  0.00    -0.104 SA
ATOM     21  C23 ZIN AC000      -3.329  -6.517  -0.263  0.00  0.00     0.050 A 
ATOM     22  C22 ZIN AC000      -3.348  -5.945  -1.468  0.00  0.00     0.008 A 
ATOM     23  C21 ZIN AC000      -3.167  -4.573  -1.465  0.00  0.00     0.018 A 
ENDBRANCH   1  19
TORSDOF 6
