REMARK  3 active torsions:
REMARK  status: ('A' for Active; 'I' for Inactive)
REMARK    1  A    between atoms: N4_4  and  C5_5 
REMARK    2  A    between atoms: C9_8  and  C11_9 
REMARK    3  A    between atoms: C11_9  and  O12_10 
ROOT
ATOM      1  C1  <0> d          -0.018   1.503   0.010  0.00  0.00     0.056 C 
ATOM      2  C2  <0> d           0.002  -0.004   0.002  0.00  0.00     0.022 A 
ATOM      3  C3  <0> d          -1.153  -0.704   0.004  0.00  0.00     0.111 A 
ATOM      4  N4  <0> d          -1.116  -2.072  -0.004  0.00  0.00    -0.278 N 
ATOM      5  C14 <0> d           0.060  -2.726  -0.013  0.00  0.00     0.331 A 
ATOM      6  O15 <0> d           0.069  -3.942  -0.020  0.00  0.00    -0.246 OA
ATOM      7  N16 <0> d           1.226  -2.053  -0.016  0.00  0.00    -0.275 N 
ATOM      8  C17 <0> d           1.232  -0.705  -0.013  0.00  0.00     0.256 A 
ATOM      9  O18 <0> d           2.287  -0.095  -0.016  0.00  0.00    -0.267 OA
ATOM     10  H28 <0> d           2.064  -2.540  -0.023  0.00  0.00     0.173 HD
ENDROOT
BRANCH   4  11
ATOM     11  C5  <0> d          -2.369  -2.831  -0.002  0.00  0.00     0.257 C 
ATOM     12  O13 <0> d          -2.362  -3.799   1.065  0.00  0.00    -0.352 OA
ATOM     13  C9  <0> d          -3.106  -4.908   0.523  0.00  0.00     0.170 C 
ATOM     14  C8  <0> d          -2.925  -4.832  -0.975  0.00  0.00     0.007 C 
ATOM     15  C7  <0> d          -2.497  -3.629  -1.280  0.00  0.00     0.025 C 
BRANCH  13  16
ATOM     16  C11 <0> d          -2.551  -6.230   1.056  0.00  0.00     0.200 C 
BRANCH  16  17
ATOM     17  O12 <0> d          -2.834  -6.338   2.453  0.00  0.00    -0.398 OA
ATOM     18  H27 <0> d          -2.510  -7.153   2.858  0.00  0.00     0.209 HD
ENDBRANCH  16  17
ENDBRANCH  13  16
ENDBRANCH   4  11
TORSDOF 3
