REMARK  8 active torsions:
REMARK  status: ('A' for Active; 'I' for Inactive)
REMARK    1  A    between atoms: O2_2  and  N3_3 
REMARK    2  A    between atoms: C4_4  and  C5_5 
REMARK    3  A    between atoms: C4_4  and  C29_27 
REMARK       I    between atoms: C5_5  and  N7_7 
REMARK    4  A    between atoms: N7_7  and  C8_8 
REMARK    5  A    between atoms: C13_12  and  C14_13 
REMARK    6  A    between atoms: C17_16  and  C18_17 
REMARK    7  A    between atoms: C18_17  and  N19_18 
REMARK    8  A    between atoms: C32_30  and  N33_31 
ROOT
ATOM      1  C8  ZIN AC000       4.644  -3.335  -1.430  0.00  0.00     0.211 C 
ATOM      2  C10 ZIN AC000       4.424  -3.448   0.069  0.00  0.00     0.251 C 
ATOM      3  O11 ZIN AC000       3.806  -4.212   0.780  0.00  0.00    -0.271 OA
ATOM      4  N12 ZIN AC000       5.186  -2.363   0.295  0.00  0.00    -0.293 N 
ATOM      5  C13 ZIN AC000       5.400  -1.424   1.318  0.00  0.00     0.120 C 
ATOM      6  C17 ZIN AC000       5.764  -0.185   1.014  0.00  0.00    -0.011 C 
ATOM      7  C25 ZIN AC000       6.046   0.393  -0.333  0.00  0.00     0.114 C 
ATOM      8  S26 ZIN AC000       5.306  -0.590  -1.673  0.00  0.00    -0.136 SA
ATOM      9  C27 ZIN AC000       5.699  -2.280  -1.112  0.00  0.00     0.187 C 
ENDROOT
BRANCH   1  10
ATOM     10  N7  ZIN AC000       3.487  -2.809  -2.156  0.00  0.00    -0.339 N 
ATOM     11  C5  ZIN AC000       2.727  -3.635  -2.903  0.00  0.00     0.275 C 
ATOM     12  O6  ZIN AC000       3.053  -4.797  -3.045  0.00  0.00    -0.266 OA
ATOM     13  H38 ZIN AC000       3.267  -1.866  -2.100  0.00  0.00     0.163 HD
BRANCH  11  14
ATOM     14  C4  ZIN AC000       1.495  -3.126  -3.550  0.00  0.00     0.180 C 
ATOM     15  N3  ZIN AC000       0.689  -3.951  -4.156  0.00  0.00    -0.126 NA
BRANCH  15  16
ATOM     16  O2  ZIN AC000       1.047  -5.313  -4.300  0.00  0.00    -0.261 OA
ATOM     17  C1  ZIN AC000       0.072  -6.102  -4.984  0.00  0.00     0.240 C 
ENDBRANCH  15  16
BRANCH  14  18
ATOM     18  C29 ZIN AC000       1.179  -1.682  -3.506  0.00  0.00     0.102 A 
ATOM     19  N34 ZIN AC000       2.044  -0.775  -3.052  0.00  0.00    -0.222 NA
ATOM     20  C32 ZIN AC000       1.658   0.463  -3.067  0.00  0.00     0.164 A 
ATOM     21  S31 ZIN AC000       0.020   0.560  -3.705  0.00  0.00    -0.062 SA
ATOM     22  C30 ZIN AC000      -0.005  -1.189  -3.918  0.00  0.00     0.087 A 
BRANCH  20  23
ATOM     23  N33 ZIN AC000       2.415   1.541  -2.641  0.00  0.00    -0.378 N 
ATOM     24  H55 ZIN AC000       2.047   2.438  -2.682  0.00  0.00     0.158 HD
ATOM     25  H56 ZIN AC000       3.312   1.400  -2.301  0.00  0.00     0.158 HD
ENDBRANCH  20  23
ENDBRANCH  14  18
ENDBRANCH  11  14
ENDBRANCH   1  10
BRANCH   5  26
ATOM     26  C14 ZIN AC000       5.220  -1.814   2.726  0.00  0.00     0.227 C 
ATOM     27  O15 ZIN AC000       5.534  -1.041   3.620  0.00  0.00    -0.643 OA
ATOM     28  O16 ZIN AC000       4.757  -2.913   3.002  0.00  0.00    -0.643 OA
ENDBRANCH   5  26
BRANCH   6  29
ATOM     29  C18 ZIN AC000       5.912   0.760   2.179  0.00  0.00     0.274 C 
BRANCH  29  30
ATOM     30  N19 ZIN AC000       7.311   0.769   2.628  0.00  0.00    -0.067 N 
ATOM     31  C24 ZIN AC000       7.428   1.551   3.877  0.00  0.00     0.237 C 
ATOM     32  C23 ZIN AC000       8.795   2.270   3.767  0.00  0.00     0.029 C 
ATOM     33  C22 ZIN AC000       8.848   2.613   2.255  0.00  0.00     0.029 C 
ATOM     34  C21 ZIN AC000       8.159   1.398   1.598  0.00  0.00     0.237 C 
ATOM     35  C20 ZIN AC000       7.764  -0.609   2.863  0.00  0.00     0.272 C 
ENDBRANCH  29  30
ENDBRANCH   6  29
TORSDOF 8
