REMARK  13 active torsions:
REMARK  status: ('A' for Active; 'I' for Inactive)
REMARK    1  A    between atoms: O2_2  and  C3_3 
REMARK    2  A    between atoms: C6_6  and  C7_7 
REMARK    3  A    between atoms: C7_7  and  C8_8 
REMARK    4  A    between atoms: C8_8  and  N9_9 
REMARK    5  A    between atoms: N9_9  and  C12_12 
REMARK    6  A    between atoms: C12_12  and  C13_13 
REMARK    7  A    between atoms: C13_13  and  C14_14 
REMARK    8  A    between atoms: C14_14  and  C15_15 
REMARK    9  A    between atoms: C15_15  and  C18_18 
REMARK   10  A    between atoms: C15_15  and  C28_28 
REMARK   11  A    between atoms: C21_21  and  O22_22 
REMARK   12  A    between atoms: C24_24  and  O25_25 
REMARK   13  A    between atoms: C32_32  and  O33_33 
ROOT
ATOM      1  C15 ZIN AC000       8.750  -5.702  -6.787  0.00  0.00     0.079 C 
ATOM      2  C16 ZIN AC000       8.735  -4.776  -7.931  0.00  0.00     0.074 C 
ATOM      3  N17 ZIN AC000       8.724  -4.062  -8.814  0.00  0.00    -0.196 NA
ENDROOT
BRANCH   1   4
ATOM      4  C14 ZIN AC000       8.481  -4.923  -5.497  0.00  0.00     0.032 C 
BRANCH   4   5
ATOM      5  C13 ZIN AC000       7.064  -4.348  -5.534  0.00  0.00     0.030 C 
BRANCH   5   6
ATOM      6  C12 ZIN AC000       6.752  -3.675  -4.196  0.00  0.00     0.234 C 
BRANCH   6   7
ATOM      7  N9  ZIN AC000       5.391  -3.122  -4.232  0.00  0.00    -0.075 N 
ATOM      8  H10 ZIN AC000       4.738  -3.851  -4.478  0.00  0.00     0.279 HD
ATOM      9  C11 ZIN AC000       5.326  -2.048  -5.231  0.00  0.00     0.269 C 
BRANCH   7  10
ATOM     10  C8  ZIN AC000       5.047  -2.583  -2.910  0.00  0.00     0.239 C 
BRANCH  10  11
ATOM     11  C7  ZIN AC000       3.588  -2.121  -2.912  0.00  0.00     0.066 C 
BRANCH  11  12
ATOM     12  C6  ZIN AC000       3.235  -1.567  -1.555  0.00  0.00    -0.054 A 
ATOM     13  C5  ZIN AC000       3.420  -0.224  -1.289  0.00  0.00     0.010 A 
ATOM     14  C4  ZIN AC000       3.097   0.289  -0.046  0.00  0.00     0.040 A 
ATOM     15  C3  ZIN AC000       2.587  -0.545   0.936  0.00  0.00     0.101 A 
ATOM     16  C32 ZIN AC000       2.406  -1.899   0.670  0.00  0.00     0.102 A 
ATOM     17  C31 ZIN AC000       2.727  -2.405  -0.579  0.00  0.00     0.046 A 
BRANCH  15  18
ATOM     18  O2  ZIN AC000       2.269  -0.043   2.159  0.00  0.00    -0.353 OA
ATOM     19  C1  ZIN AC000       2.481   1.356   2.361  0.00  0.00     0.210 C 
ENDBRANCH  15  18
BRANCH  16  20
ATOM     20  O33 ZIN AC000       1.907  -2.722   1.631  0.00  0.00    -0.353 OA
ATOM     21  C34 ZIN AC000       1.739  -4.098   1.283  0.00  0.00     0.210 C 
ENDBRANCH  16  20
ENDBRANCH  11  12
ENDBRANCH  10  11
ENDBRANCH   7  10
ENDBRANCH   6   7
ENDBRANCH   5   6
ENDBRANCH   4   5
ENDBRANCH   1   4
BRANCH   1  22
ATOM     22  C18 ZIN AC000      10.097  -6.371  -6.699  0.00  0.00    -0.032 A 
ATOM     23  C27 ZIN AC000      11.225  -5.617  -6.428  0.00  0.00     0.048 A 
ATOM     24  C24 ZIN AC000      12.464  -6.231  -6.342  0.00  0.00     0.102 A 
ATOM     25  C21 ZIN AC000      12.571  -7.605  -6.537  0.00  0.00     0.101 A 
ATOM     26  C20 ZIN AC000      11.438  -8.353  -6.813  0.00  0.00     0.040 A 
ATOM     27  C19 ZIN AC000      10.204  -7.735  -6.893  0.00  0.00     0.012 A 
BRANCH  24  28
ATOM     28  O25 ZIN AC000      13.573  -5.492  -6.071  0.00  0.00    -0.353 OA
ATOM     29  C26 ZIN AC000      13.387  -4.088  -5.882  0.00  0.00     0.210 C 
ENDBRANCH  24  28
BRANCH  25  30
ATOM     30  O22 ZIN AC000      13.786  -8.212  -6.459  0.00  0.00    -0.353 OA
ATOM     31  C23 ZIN AC000      13.821  -9.624  -6.671  0.00  0.00     0.210 C 
ENDBRANCH  25  30
ENDBRANCH   1  22
BRANCH   1  32
ATOM     32  C28 ZIN AC000       7.665  -6.764  -6.976  0.00  0.00     0.004 C 
ATOM     33  C29 ZIN AC000       7.857  -7.454  -8.328  0.00  0.00     0.011 C 
ATOM     34  C30 ZIN AC000       7.765  -7.801  -5.855  0.00  0.00     0.011 C 
ENDBRANCH   1  32
TORSDOF 13
