REMARK  7 active torsions:
REMARK  status: ('A' for Active; 'I' for Inactive)
REMARK    1  A    between atoms: C2_2  and  N3_3 
REMARK    2  A    between atoms: N3_3  and  C5_5 
REMARK    3  A    between atoms: N3_3  and  C7_7 
REMARK    4  A    between atoms: C7_7  and  C8_8 
REMARK    5  A    between atoms: C8_8  and  N9_9 
REMARK       I    between atoms: N9_9  and  C10_10 
REMARK    6  A    between atoms: C10_10  and  C12_12 
REMARK    7  A    between atoms: C16_16  and  C17_17 
ROOT
ATOM      1  C12 <0> d          -2.857  -6.047  -2.094  0.00  0.00     0.062 A 
ATOM      2  C13 <0> d          -2.995  -7.002  -1.102  0.00  0.00     0.022 A 
ATOM      3  C14 <0> d          -2.938  -6.742   0.381  0.00  0.00     0.069 C 
ATOM      4  N15 <0> d          -3.190  -8.199  -1.681  0.00  0.00    -0.359 N 
ATOM      5  C16 <0> d          -3.182  -8.048  -3.052  0.00  0.00     0.040 A 
ATOM      6  C29 <0> d          -2.981  -6.711  -3.333  0.00  0.00    -0.018 A 
ATOM      7  C30 <0> d          -2.901  -6.083  -4.700  0.00  0.00     0.052 C 
ATOM      8  H49 <0> d          -3.316  -9.037  -1.208  0.00  0.00     0.166 HD
ENDROOT
BRANCH   5   9
ATOM      9  C17 <0> d          -3.355  -9.079  -4.001  0.00  0.00     0.048 C 
ATOM     10  C18 <0> d          -4.193 -10.140  -3.723  0.00  0.00     0.047 A 
ATOM     11  C28 <0> d          -4.382 -11.371  -4.522  0.00  0.00     0.009 A 
ATOM     12  C19 <0> d          -5.095 -10.288  -2.573  0.00  0.00     0.257 A 
ATOM     13  C22 <0> d          -5.327 -12.146  -3.836  0.00  0.00     0.046 A 
ATOM     14  C27 <0> d          -3.817 -11.835  -5.705  0.00  0.00     0.057 A 
ATOM     15  N21 <0> d          -5.727 -11.469  -2.689  0.00  0.00    -0.322 N 
ATOM     16  C23 <0> d          -5.701 -13.378  -4.360  0.00  0.00     0.033 A 
ATOM     17  H51 <0> d          -6.379 -11.805  -2.054  0.00  0.00     0.169 HD
ATOM     18  C24 <0> d          -5.140 -13.829  -5.538  0.00  0.00     0.044 A 
ATOM     19  C25 <0> d          -4.201 -13.063  -6.212  0.00  0.00     0.117 A 
ATOM     20  F26 <0> d          -3.660 -13.517  -7.363  0.00  0.00    -0.206 F 
ATOM     21  O20 <0> d          -5.245  -9.482  -1.672  0.00  0.00    -0.267 OA
ENDBRANCH   5   9
BRANCH   1  22
ATOM     22  C10 <0> d          -2.628  -4.605  -1.893  0.00  0.00     0.254 C 
ATOM     23  N9  <0> d          -1.371  -4.125  -1.820  0.00  0.00    -0.355 N 
ATOM     24  H45 <0> d          -0.616  -4.730  -1.900  0.00  0.00     0.162 HD
ATOM     25  O11 <0> d          -3.574  -3.848  -1.793  0.00  0.00    -0.268 OA
BRANCH  23  26
ATOM     26  C8  <0> d          -1.143  -2.692  -1.621  0.00  0.00     0.150 C 
BRANCH  26  27
ATOM     27  C7  <0> d           0.361  -2.415  -1.575  0.00  0.00     0.254 C 
BRANCH  27  28
ATOM     28  N3  <0> d           0.588  -0.978  -1.375  0.00  0.00    -0.070 N 
ATOM     29  H4  <0> d           0.105  -0.458  -2.093  0.00  0.00     0.279 HD
BRANCH  28  30
ATOM     30  C2  <0> d           0.080  -0.581  -0.056  0.00  0.00     0.230 C 
ATOM     31  C1  <0> d           0.189   0.938   0.096  0.00  0.00     0.034 C 
ENDBRANCH  28  30
BRANCH  28  32
ATOM     32  C5  <0> d           2.028  -0.695  -1.451  0.00  0.00     0.230 C 
ATOM     33  C6  <0> d           2.529  -0.976  -2.869  0.00  0.00     0.034 C 
ENDBRANCH  28  32
ENDBRANCH  27  28
ENDBRANCH  26  27
ENDBRANCH  23  26
ENDBRANCH   1  22
TORSDOF 7
