REMARK  7 active torsions:
REMARK  status: ('A' for Active; 'I' for Inactive)
REMARK    1  A    between atoms: C5_5  and  C6_6 
REMARK    2  A    between atoms: C6_6  and  C7_7 
REMARK    3  A    between atoms: C7_7  and  C8_8 
REMARK    4  A    between atoms: C8_8  and  C10_9 
REMARK    5  A    between atoms: C8_8  and  S17_16 
REMARK    6  A    between atoms: C10_9  and  N11_10 
REMARK    7  A    between atoms: S17_16  and  C18_17 
ROOT
ATOM      1  C8  ZIN AC000      -0.125   7.936   1.024  0.00  0.00     0.071 C 
ENDROOT
BRANCH   1   2
ATOM      2  C7  ZIN AC000      -0.177   6.438   0.718  0.00  0.00     0.022 C 
BRANCH   2   3
ATOM      3  C6  ZIN AC000       0.114   6.210  -0.767  0.00  0.00     0.040 C 
BRANCH   3   4
ATOM      4  C5  ZIN AC000       0.064   4.735  -1.069  0.00  0.00    -0.058 A 
ATOM      5  C4  ZIN AC000      -1.128   4.148  -1.450  0.00  0.00     0.009 A 
ATOM      6  C3  ZIN AC000      -1.175   2.795  -1.726  0.00  0.00     0.024 A 
ATOM      7  C2  ZIN AC000      -0.029   2.027  -1.622  0.00  0.00     0.034 A 
ATOM      8 Cl1  ZIN AC000      -0.087   0.327  -1.970  0.00  0.00    -0.084 Cl
ATOM      9  C27 ZIN AC000       1.163   2.614  -1.234  0.00  0.00     0.024 A 
ATOM     10  C26 ZIN AC000       1.210   3.968  -0.963  0.00  0.00     0.009 A 
ENDBRANCH   3   4
ENDBRANCH   2   3
ENDBRANCH   1   2
BRANCH   1  11
ATOM     11  C10 ZIN AC000      -0.538   8.174   2.478  0.00  0.00     0.144 C 
BRANCH  11  12
ATOM     12  N11 ZIN AC000      -1.935   7.774   2.660  0.00  0.00    -0.351 N 
ATOM     13  C16 ZIN AC000      -2.373   6.583   3.121  0.00  0.00     0.182 A 
ATOM     14  N14 ZIN AC000      -3.678   6.598   3.147  0.00  0.00    -0.361 N 
ATOM     15  C13 ZIN AC000      -4.115   7.785   2.700  0.00  0.00     0.106 A 
ATOM     16  H15 ZIN AC000      -4.243   5.866   3.440  0.00  0.00     0.166 HD
ATOM     17  C12 ZIN AC000      -3.040   8.535   2.391  0.00  0.00     0.108 A 
ENDBRANCH  11  12
ENDBRANCH   1  11
BRANCH   1  18
ATOM     18  S17 ZIN AC000       1.563   8.548   0.766  0.00  0.00    -0.120 SA
BRANCH  18  19
ATOM     19  C18 ZIN AC000       1.383  10.292   0.941  0.00  0.00     0.044 A 
ATOM     20  C24 ZIN AC000       1.662  10.903   2.158  0.00  0.00     0.052 A 
ATOM     21  C23 ZIN AC000       1.526  12.272   2.289  0.00  0.00     0.025 A 
ATOM     22 Cl25 ZIN AC000       2.196   9.950   3.507  0.00  0.00    -0.083 Cl
ATOM     23  C22 ZIN AC000       1.100  13.033   1.215  0.00  0.00     0.003 A 
ATOM     24  C21 ZIN AC000       0.816  12.428   0.004  0.00  0.00     0.025 A 
ATOM     25  C19 ZIN AC000       0.956  11.060  -0.137  0.00  0.00     0.052 A 
ATOM     26 Cl20 ZIN AC000       0.598  10.302  -1.657  0.00  0.00    -0.083 Cl
ENDBRANCH  18  19
ENDBRANCH   1  18
TORSDOF 7
