REMARK  6 active torsions:
REMARK  status: ('A' for Active; 'I' for Inactive)
REMARK    1  A    between atoms: C11_9  and  O13_10 
REMARK    2  A    between atoms: O13_10  and  C14_11 
REMARK    3  A    between atoms: C14_11  and  C16_13 
REMARK    4  A    between atoms: C16_13  and  C18_14 
REMARK    5  A    between atoms: C16_13  and  C20_16 
REMARK    6  A    between atoms: C18_14  and  O19_15 
ROOT
ATOM      1  C14 ZIN AC000      -1.972  -3.646   2.497  0.00  0.00     0.270 C 
ATOM      2  O15 ZIN AC000      -2.114  -4.574   1.736  0.00  0.00    -0.264 OA
ENDROOT
BRANCH   1   3
ATOM      3  O13 ZIN AC000      -1.138  -2.643   2.183  0.00  0.00    -0.315 OA
BRANCH   3   4
ATOM      4  C11 ZIN AC000      -0.440  -2.739   0.913  0.00  0.00     0.136 C 
ATOM      5  C10 ZIN AC000       0.913  -2.030   1.021  0.00  0.00     0.065 C 
ATOM      6  C8  ZIN AC000       0.672  -0.525   1.223  0.00  0.00     0.190 C 
ATOM      7  N2  ZIN AC000       0.002  -0.004   0.002  0.00  0.00    -0.066 N 
ATOM      8  C7  ZIN AC000      -0.394  -0.361   2.336  0.00  0.00     0.035 C 
ATOM      9  C1  ZIN AC000      -0.018   1.465   0.010  0.00  0.00     0.270 C 
ATOM     10  H3  ZIN AC000       0.460  -0.348  -0.829  0.00  0.00     0.280 HD
ATOM     11  C4  ZIN AC000      -1.379  -0.547   0.102  0.00  0.00     0.190 C 
ATOM     12  C26 ZIN AC000      -1.301  -2.051  -0.207  0.00  0.00     0.065 C 
ATOM     13  C6  ZIN AC000      -1.747  -0.376   1.594  0.00  0.00     0.035 C 
ENDBRANCH   3   4
ENDBRANCH   1   3
BRANCH   1  14
ATOM     14  C16 ZIN AC000      -2.732  -3.615   3.798  0.00  0.00     0.142 C 
BRANCH  14  15
ATOM     15  C18 ZIN AC000      -3.619  -2.370   3.841  0.00  0.00     0.183 C 
BRANCH  15  16
ATOM     16  O19 ZIN AC000      -4.250  -2.279   5.120  0.00  0.00    -0.400 OA
ATOM     17  H38 ZIN AC000      -4.830  -1.511   5.219  0.00  0.00     0.209 HD
ENDBRANCH  15  16
ENDBRANCH  14  15
BRANCH  14  18
ATOM     18  C20 ZIN AC000      -3.591  -4.849   3.908  0.00  0.00    -0.043 A 
ATOM     19  C25 ZIN AC000      -3.406  -5.729   4.957  0.00  0.00     0.008 A 
ATOM     20  C24 ZIN AC000      -4.197  -6.858   5.060  0.00  0.00     0.001 A 
ATOM     21  C23 ZIN AC000      -5.167  -7.111   4.108  0.00  0.00     0.000 A 
ATOM     22  C22 ZIN AC000      -5.349  -6.233   3.056  0.00  0.00     0.001 A 
ATOM     23  C21 ZIN AC000      -4.561  -5.102   2.956  0.00  0.00     0.008 A 
ENDBRANCH  14  18
ENDBRANCH   1  14
TORSDOF 6
