REMARK  6 active torsions:
REMARK  status: ('A' for Active; 'I' for Inactive)
REMARK    1  A    between atoms: N1_1  and  C2_2 
REMARK    2  A    between atoms: C4_4  and  N5_5 
REMARK    3  A    between atoms: N5_5  and  C6_6 
REMARK    4  A    between atoms: N12_12  and  C13_13 
REMARK    5  A    between atoms: C17_16  and  C19_17 
REMARK    6  A    between atoms: C19_17  and  O20_18 
ROOT
ATOM      1  C2  ZIN AC000       0.002  -0.004   0.002  0.00  0.00     0.724 A 
ATOM      2  N3  ZIN AC000      -1.151  -0.660   0.004  0.00  0.00    -0.043 NA
ATOM      3  C4  ZIN AC000      -1.185  -1.988  -0.003  0.00  0.00     0.176 A 
ATOM      4  C9  ZIN AC000       0.031  -2.692  -0.013  0.00  0.00     0.151 A 
ATOM      5  N10 ZIN AC000       0.371  -4.005  -0.021  0.00  0.00    -0.236 NA
ATOM      6  C11 ZIN AC000       1.667  -4.117  -0.028  0.00  0.00     0.212 A 
ATOM      7  N12 ZIN AC000       2.241  -2.879  -0.024  0.00  0.00    -0.315 N 
ATOM      8  C22 ZIN AC000       1.227  -1.955  -0.015  0.00  0.00     0.183 A 
ATOM      9  N23 ZIN AC000       1.169  -0.627  -0.013  0.00  0.00    -0.043 NA
ENDROOT
BRANCH   7  10
ATOM     10  C13 ZIN AC000       3.677  -2.590  -0.029  0.00  0.00     0.115 C 
ATOM     11  C21 ZIN AC000       4.350  -3.222  -1.270  0.00  0.00     0.040 C 
ATOM     12  C17 ZIN AC000       5.714  -3.663  -0.686  0.00  0.00     0.034 C 
ATOM     13  C16 ZIN AC000       5.462  -3.833   0.794  0.00  0.00    -0.022 C 
ATOM     14  C15 ZIN AC000       4.351  -3.247   1.152  0.00  0.00    -0.005 C 
BRANCH  12  15
ATOM     15  C19 ZIN AC000       6.160  -4.988  -1.306  0.00  0.00     0.172 C 
BRANCH  15  16
ATOM     16  O20 ZIN AC000       7.439  -5.352  -0.784  0.00  0.00    -0.400 OA
ATOM     17  H37 ZIN AC000       7.785  -6.184  -1.134  0.00  0.00     0.209 HD
ENDBRANCH  15  16
ENDBRANCH  12  15
ENDBRANCH   7  10
BRANCH   3  18
ATOM     18  N5  ZIN AC000      -2.393  -2.664  -0.001  0.00  0.00    -0.368 N 
ATOM     19  H26 ZIN AC000      -2.406  -3.634  -0.006  0.00  0.00     0.161 HD
BRANCH  18  20
ATOM     20  C6  ZIN AC000      -3.651  -1.915   0.009  0.00  0.00     0.083 A 
ATOM     21  C8  ZIN AC000      -4.885  -2.614   0.584  0.00  0.00     0.027 A 
ATOM     22  C7  ZIN AC000      -4.765  -2.393  -0.925  0.00  0.00     0.027 A 
ENDBRANCH  18  20
ENDBRANCH   3  18
BRANCH   1  23
ATOM     23  N1  ZIN AC000      -0.017   1.381   0.010  0.00  0.00    -0.231 N 
ATOM     24  H24 ZIN AC000       0.817   1.877   0.004  0.00  0.00     0.174 HD
ATOM     25  H25 ZIN AC000      -0.863   1.855   0.016  0.00  0.00     0.174 HD
ENDBRANCH   1  23
TORSDOF 6
