REMARK  7 active torsions:
REMARK  status: ('A' for Active; 'I' for Inactive)
REMARK    1  A    between atoms: O2_2  and  C3_3 
REMARK    2  A    between atoms: C5_5  and  N6_6 
REMARK    3  A    between atoms: N6_6  and  C7_7 
REMARK    4  A    between atoms: C7_7  and  C10_9 
REMARK    5  A    between atoms: C10_9  and  C11_10 
REMARK    6  A    between atoms: C11_10  and  C12_11 
REMARK    7  A    between atoms: C12_11  and  N13_12 
ROOT
ATOM      1  C3  ZIN AC000       0.606  -0.607  -1.056  0.00  0.00     0.071 A 
ATOM      2  C4  ZIN AC000       0.651  -2.001  -1.122  0.00  0.00     0.068 A 
ATOM      3  C5  ZIN AC000       1.257  -2.636  -2.183  0.00  0.00     0.060 A 
ATOM      4  C17 ZIN AC000       1.840  -1.871  -3.217  0.00  0.00     0.093 A 
ATOM      5  N18 ZIN AC000       2.433  -2.462  -4.258  0.00  0.00    -0.258 NA
ATOM      6  C19 ZIN AC000       2.976  -1.760  -5.223  0.00  0.00     0.117 A 
ATOM      7  C20 ZIN AC000       2.963  -0.367  -5.213  0.00  0.00     0.020 A 
ATOM      8  C21 ZIN AC000       2.372   0.301  -4.178  0.00  0.00     0.015 A 
ATOM      9  C22 ZIN AC000       1.790  -0.457  -3.143  0.00  0.00    -0.002 A 
ATOM     10  C23 ZIN AC000       1.161   0.163  -2.053  0.00  0.00     0.050 A 
ENDROOT
BRANCH   3  11
ATOM     11  N6  ZIN AC000       1.294  -4.029  -2.236  0.00  0.00    -0.384 N 
ATOM     12  H28 ZIN AC000       1.722  -4.474  -2.984  0.00  0.00     0.160 HD
BRANCH  11  13
ATOM     13  C7  ZIN AC000       0.689  -4.819  -1.162  0.00  0.00     0.077 C 
ATOM     14  C9  ZIN AC000       1.693  -4.982  -0.020  0.00  0.00     0.032 C 
BRANCH  13  15
ATOM     15  C10 ZIN AC000       0.300  -6.198  -1.700  0.00  0.00     0.026 C 
BRANCH  15  16
ATOM     16  C11 ZIN AC000      -0.796  -6.043  -2.756  0.00  0.00     0.029 C 
BRANCH  16  17
ATOM     17  C12 ZIN AC000      -1.184  -7.422  -3.294  0.00  0.00     0.230 C 
BRANCH  17  18
ATOM     18  N13 ZIN AC000      -2.237  -7.273  -4.308  0.00  0.00    -0.079 N 
ATOM     19  H14 ZIN AC000      -2.493  -8.182  -4.663  0.00  0.00     0.274 HD
ATOM     20  H15 ZIN AC000      -3.045  -6.834  -3.892  0.00  0.00     0.274 HD
ATOM     21  H16 ZIN AC000      -1.895  -6.700  -5.066  0.00  0.00     0.274 HD
ENDBRANCH  17  18
ENDBRANCH  16  17
ENDBRANCH  15  16
ENDBRANCH  13  15
ENDBRANCH  11  13
ENDBRANCH   3  11
BRANCH   1  22
ATOM     22  O2  ZIN AC000       0.002  -0.004   0.002  0.00  0.00    -0.356 OA
ATOM     23  C1  ZIN AC000      -0.017   1.425   0.010  0.00  0.00     0.210 C 
ENDBRANCH   1  22
TORSDOF 7
