REMARK  6 active torsions:
REMARK  status: ('A' for Active; 'I' for Inactive)
REMARK    1  A    between atoms: C8_8  and  O10_9 
REMARK    2  A    between atoms: O10_9  and  C11_10 
REMARK    3  A    between atoms: C11_10  and  C13_12 
REMARK    4  A    between atoms: C13_12  and  O14_13 
REMARK    5  A    between atoms: C13_12  and  C15_14 
REMARK    6  A    between atoms: C13_12  and  C21_20 
ROOT
ATOM      1  C13 <0> d          -4.243  -3.147  -2.243  0.00  0.00     0.201 C 
ENDROOT
BRANCH   1   2
ATOM      2  C11 <0> d          -3.162  -2.440  -1.466  0.00  0.00     0.303 C 
ATOM      3  O12 <0> d          -3.381  -2.052  -0.343  0.00  0.00    -0.261 OA
BRANCH   2   4
ATOM      4  O10 <0> d          -1.957  -2.241  -2.022  0.00  0.00    -0.311 OA
BRANCH   4   5
ATOM      5  C8  <0> d          -0.964  -1.553  -1.216  0.00  0.00     0.162 C 
ATOM      6  C5  <0> d           0.439  -2.037  -1.604  0.00  0.00     0.020 C 
ATOM      7  C4  <0> d           0.676  -1.700  -3.082  0.00  0.00     0.035 C 
ATOM      8  C6  <0> d           1.466  -1.269  -0.762  0.00  0.00     0.035 C 
ATOM      9  C3  <0> d           0.535  -0.188  -3.272  0.00  0.00     0.237 C 
ATOM     10  N2  <0> d           0.221   0.451  -1.992  0.00  0.00    -0.068 N 
ATOM     11  C1  <0> d           0.088   1.897  -2.215  0.00  0.00     0.272 C 
ATOM     12  C7  <0> d           1.300   0.229  -1.026  0.00  0.00     0.237 C 
ATOM     13  C27 <0> d          -1.050  -0.057  -1.471  0.00  0.00     0.269 C 
ENDBRANCH   4   5
ENDBRANCH   2   4
ENDBRANCH   1   2
BRANCH   1  14
ATOM     14  O14 <0> d          -4.138  -2.803  -3.626  0.00  0.00    -0.371 OA
ATOM     15  H40 <0> d          -4.232  -1.857  -3.804  0.00  0.00     0.212 HD
ENDBRANCH   1  14
BRANCH   1  16
ATOM     16  C15 <0> d          -4.083  -4.637  -2.083  0.00  0.00    -0.009 A 
ATOM     17  C20 <0> d          -4.287  -5.474  -3.163  0.00  0.00     0.011 A 
ATOM     18  C19 <0> d          -4.136  -6.841  -3.017  0.00  0.00     0.001 A 
ATOM     19  C18 <0> d          -3.791  -7.370  -1.788  0.00  0.00     0.000 A 
ATOM     20  C17 <0> d          -3.593  -6.534  -0.706  0.00  0.00     0.001 A 
ATOM     21  C16 <0> d          -3.739  -5.167  -0.853  0.00  0.00     0.011 A 
ENDBRANCH   1  16
BRANCH   1  22
ATOM     22  C21 <0> d          -5.593  -2.727  -1.721  0.00  0.00    -0.009 A 
ATOM     23  C26 <0> d          -5.971  -3.062  -0.434  0.00  0.00     0.011 A 
ATOM     24  C25 <0> d          -7.208  -2.673   0.045  0.00  0.00     0.001 A 
ATOM     25  C24 <0> d          -8.070  -1.958  -0.765  0.00  0.00     0.000 A 
ATOM     26  C23 <0> d          -7.694  -1.628  -2.053  0.00  0.00     0.001 A 
ATOM     27  C22 <0> d          -6.455  -2.013  -2.532  0.00  0.00     0.011 A 
ENDBRANCH   1  22
TORSDOF 6
