REMARK  5 active torsions:
REMARK  status: ('A' for Active; 'I' for Inactive)
REMARK    1  A    between atoms: C2_2  and  O3_3 
REMARK    2  A    between atoms: O3_3  and  C4_4 
REMARK    3  A    between atoms: C4_4  and  C6_6 
REMARK    4  A    between atoms: C9_9  and  C10_10 
REMARK    5  A    between atoms: C11_11  and  C12_12 
ROOT
ATOM      1  C10 ZIN AC000       3.353  -3.972   5.946  0.00  0.00    -0.041 C 
ATOM      2  C11 ZIN AC000       3.948  -4.352   6.884  0.00  0.00    -0.060 C 
ENDROOT
BRANCH   2   3
ATOM      3  C12 ZIN AC000       4.673  -4.816   8.028  0.00  0.00     0.018 A 
ATOM      4  C23 ZIN AC000       5.230  -3.903   8.923  0.00  0.00     0.029 A 
ATOM      5  C22 ZIN AC000       5.931  -4.335  10.041  0.00  0.00    -0.032 A 
ATOM      6  C15 ZIN AC000       6.070  -5.696  10.261  0.00  0.00     0.007 A 
ATOM      7  C19 ZIN AC000       6.494  -3.263  10.928  0.00  0.00    -0.018 C 
ATOM      8  C14 ZIN AC000       5.524  -6.614   9.358  0.00  0.00     0.020 A 
ATOM      9  S16 ZIN AC000       6.910  -6.339  11.674  0.00  0.00    -0.129 SA
ATOM     10  C13 ZIN AC000       4.832  -6.188   8.252  0.00  0.00     0.022 A 
ATOM     11  C17 ZIN AC000       7.764  -4.876  12.329  0.00  0.00     0.080 C 
ATOM     12  C18 ZIN AC000       6.748  -3.725  12.352  0.00  0.00     0.024 C 
ATOM     13  C20 ZIN AC000       5.513  -2.090  10.961  0.00  0.00     0.020 C 
ATOM     14  C21 ZIN AC000       7.815  -2.779  10.327  0.00  0.00     0.020 C 
ENDBRANCH   2   3
BRANCH   1  15
ATOM     15  C9  ZIN AC000       2.628  -3.508   4.802  0.00  0.00     0.110 A 
ATOM     16  C8  ZIN AC000       2.074  -4.436   3.912  0.00  0.00     0.042 A 
ATOM     17  C7  ZIN AC000       1.382  -3.986   2.820  0.00  0.00     0.022 A 
ATOM     18  C6  ZIN AC000       1.253  -2.601   2.631  0.00  0.00     0.057 A 
ATOM     19  C25 ZIN AC000       1.837  -1.731   3.556  0.00  0.00     0.135 A 
ATOM     20  N24 ZIN AC000       2.489  -2.199   4.597  0.00  0.00    -0.251 NA
BRANCH  18  21
ATOM     21  C4  ZIN AC000       0.517  -2.072   1.469  0.00  0.00     0.294 C 
ATOM     22  O5  ZIN AC000       0.013  -2.835   0.670  0.00  0.00    -0.259 OA
BRANCH  21  23
ATOM     23  O3  ZIN AC000       0.403  -0.740   1.293  0.00  0.00    -0.318 OA
BRANCH  23  24
ATOM     24  C2  ZIN AC000      -0.336  -0.290   0.127  0.00  0.00     0.174 C 
ATOM     25  C1  ZIN AC000      -0.358   1.239   0.097  0.00  0.00     0.034 C 
ENDBRANCH  23  24
ENDBRANCH  21  23
ENDBRANCH  18  21
ENDBRANCH   1  15
TORSDOF 5
