REMARK  3 active torsions:
REMARK  status: ('A' for Active; 'I' for Inactive)
REMARK    1  A    between atoms: C2_2  and  C4_3 
REMARK    2  A    between atoms: C2_2  and  C7_6 
REMARK    3  A    between atoms: C10_9  and  C11_10 
ROOT
ATOM      1  C7  <0> d           0.731  -0.503   1.223  0.00  0.00    -0.041 A 
ATOM      2  C8  <0> d           0.260  -0.185   2.484  0.00  0.00     0.009 A 
ATOM      3  C9  <0> d           0.923  -0.639   3.607  0.00  0.00     0.016 A 
ATOM      4  C10 <0> d           2.069  -1.419   3.469  0.00  0.00     0.013 A 
ATOM      5  C17 <0> d           2.540  -1.738   2.194  0.00  0.00     0.128 A 
ATOM      6  F18 <0> d           3.651  -2.494   2.053  0.00  0.00    -0.205 F 
ATOM      7  C19 <0> d           1.865  -1.282   1.078  0.00  0.00     0.051 A 
ENDROOT
BRANCH   4   8
ATOM      8  C11 <0> d           2.785  -1.910   4.672  0.00  0.00    -0.023 A 
ATOM      9  C16 <0> d           3.123  -3.257   4.784  0.00  0.00     0.012 A 
ATOM     10  C15 <0> d           3.795  -3.707   5.903  0.00  0.00     0.001 A 
ATOM     11  C14 <0> d           4.122  -2.825   6.917  0.00  0.00     0.000 A 
ATOM     12  C13 <0> d           3.784  -1.488   6.814  0.00  0.00     0.001 A 
ATOM     13  C12 <0> d           3.118  -1.026   5.697  0.00  0.00     0.012 A 
ENDBRANCH   4   8
BRANCH   1  14
ATOM     14  C2  <0> d           0.002  -0.004   0.002  0.00  0.00     0.115 C 
ATOM     15  C1  <0> d          -0.019   1.526   0.010  0.00  0.00     0.026 C 
BRANCH  14  16
ATOM     16  C4  <0> d          -1.412  -0.526   0.013  0.00  0.00     0.181 C 
ATOM     17  O5  <0> d          -2.175  -0.236  -0.893  0.00  0.00    -0.647 OA
ATOM     18  O6  <0> d          -1.792  -1.237   0.927  0.00  0.00    -0.647 OA
ENDBRANCH  14  16
ENDBRANCH   1  14
TORSDOF 3
