REMARK  4 active torsions:
REMARK  status: ('A' for Active; 'I' for Inactive)
REMARK    1  A    between atoms: O2_2  and  C3_3 
REMARK    2  A    between atoms: C3_3  and  C5_5 
REMARK    3  A    between atoms: C5_5  and  C7_6 
REMARK    4  A    between atoms: C5_5  and  C13_12 
ROOT
ATOM      1  C5  ZIN AC000      -1.244  -2.135   0.003  0.00  0.00     0.149 C 
ENDROOT
BRANCH   1   2
ATOM      2  C3  ZIN AC000      -1.312  -0.661   0.306  0.00  0.00     0.269 C 
ATOM      3  O4  ZIN AC000      -2.385  -0.114   0.408  0.00  0.00    -0.264 OA
BRANCH   2   4
ATOM      4  O2  ZIN AC000      -0.181   0.045   0.462  0.00  0.00    -0.326 OA
ATOM      5  C1  ZIN AC000      -0.323   1.461   0.752  0.00  0.00     0.213 C 
ENDBRANCH   2   4
ENDBRANCH   1   2
BRANCH   1   6
ATOM      6  C7  ZIN AC000      -2.640  -2.687  -0.124  0.00  0.00    -0.043 A 
ATOM      7  C12 ZIN AC000      -3.107  -3.606   0.797  0.00  0.00     0.008 A 
ATOM      8  C11 ZIN AC000      -4.390  -4.109   0.683  0.00  0.00     0.001 A 
ATOM      9  C10 ZIN AC000      -5.203  -3.700  -0.357  0.00  0.00     0.000 A 
ATOM     10  C9  ZIN AC000      -4.734  -2.785  -1.282  0.00  0.00     0.001 A 
ATOM     11  C8  ZIN AC000      -3.453  -2.279  -1.165  0.00  0.00     0.008 A 
ENDBRANCH   1   6
BRANCH   1  12
ATOM     12  C13 ZIN AC000      -0.489  -2.352  -1.311  0.00  0.00     0.203 C 
ATOM     13  N19 ZIN AC000      -0.542  -3.772  -1.677  0.00  0.00    -0.070 N 
ATOM     14  C18 ZIN AC000       0.114  -3.977  -2.974  0.00  0.00     0.232 C 
ATOM     15  H20 ZIN AC000      -0.069  -4.319  -0.972  0.00  0.00     0.277 HD
ATOM     16  H21 ZIN AC000      -1.505  -4.065  -1.738  0.00  0.00     0.277 HD
ATOM     17  C17 ZIN AC000       1.595  -3.608  -2.864  0.00  0.00     0.027 C 
ATOM     18  C16 ZIN AC000       1.720  -2.138  -2.453  0.00  0.00     0.004 C 
ATOM     19  C15 ZIN AC000       0.969  -1.920  -1.137  0.00  0.00     0.034 C 
ENDBRANCH   1  12
TORSDOF 4
