REMARK  7 active torsions:
REMARK  status: ('A' for Active; 'I' for Inactive)
REMARK    1  A    between atoms: C3_3  and  C4_4 
REMARK    2  A    between atoms: C3_3  and  C22_22 
REMARK    3  A    between atoms: C3_3  and  C28_28 
REMARK    4  A    between atoms: C4_4  and  C5_5 
REMARK    5  A    between atoms: C5_5  and  N6_6 
REMARK    6  A    between atoms: C10_10  and  C11_11 
REMARK    7  A    between atoms: C10_10  and  C14_14 
ROOT
ATOM      1  N1  ZIN AC000       0.105  -1.017   0.037  0.00  0.00    -0.196 NA
ATOM      2  C2  ZIN AC000       0.091   0.119   0.023  0.00  0.00     0.079 C 
ATOM      3  C3  ZIN AC000       0.074   1.590   0.005  0.00  0.00     0.104 C 
ENDROOT
BRANCH   3   4
ATOM      4  C4  ZIN AC000       1.506   2.119   0.110  0.00  0.00     0.062 C 
BRANCH   4   5
ATOM      5  C5  ZIN AC000       2.356   1.512  -1.008  0.00  0.00     0.237 C 
BRANCH   5   6
ATOM      6  N6  ZIN AC000       3.695   2.118  -0.988  0.00  0.00    -0.071 N 
ATOM      7  H7  ZIN AC000       3.610   3.122  -1.046  0.00  0.00     0.279 HD
ATOM      8  C21 ZIN AC000       4.375   1.758   0.262  0.00  0.00     0.236 C 
ATOM      9  C20 ZIN AC000       5.737   2.453   0.325  0.00  0.00     0.053 C 
ATOM     10  C10 ZIN AC000       6.587   2.004  -0.867  0.00  0.00     0.078 C 
ATOM     11  C9  ZIN AC000       5.835   2.316  -2.164  0.00  0.00     0.053 C 
ATOM     12  C8  ZIN AC000       4.469   1.627  -2.134  0.00  0.00     0.236 C 
BRANCH  10  13
ATOM     13  C11 ZIN AC000       6.840   0.521  -0.775  0.00  0.00     0.186 C 
ATOM     14  O12 ZIN AC000       7.069  -0.122  -1.786  0.00  0.00    -0.647 OA
ATOM     15  O13 ZIN AC000       6.815  -0.036   0.309  0.00  0.00    -0.647 OA
ENDBRANCH  10  13
BRANCH  10  16
ATOM     16  C14 ZIN AC000       7.901   2.741  -0.857  0.00  0.00    -0.039 A 
ATOM     17  C19 ZIN AC000       8.757   2.612   0.221  0.00  0.00     0.008 A 
ATOM     18  C18 ZIN AC000       9.965   3.285   0.229  0.00  0.00     0.001 A 
ATOM     19  C17 ZIN AC000      10.312   4.093  -0.837  0.00  0.00     0.000 A 
ATOM     20  C16 ZIN AC000       9.454   4.226  -1.913  0.00  0.00     0.001 A 
ATOM     21  C15 ZIN AC000       8.249   3.550  -1.922  0.00  0.00     0.008 A 
ENDBRANCH  10  16
ENDBRANCH   5   6
ENDBRANCH   4   5
ENDBRANCH   3   4
BRANCH   3  22
ATOM     22  C22 ZIN AC000      -0.545   2.070  -1.282  0.00  0.00    -0.031 A 
ATOM     23  C27 ZIN AC000      -0.578   3.421  -1.573  0.00  0.00     0.009 A 
ATOM     24  C26 ZIN AC000      -1.142   3.860  -2.756  0.00  0.00     0.001 A 
ATOM     25  C25 ZIN AC000      -1.681   2.949  -3.644  0.00  0.00     0.000 A 
ATOM     26  C24 ZIN AC000      -1.654   1.598  -3.352  0.00  0.00     0.001 A 
ATOM     27  C23 ZIN AC000      -1.086   1.159  -2.170  0.00  0.00     0.009 A 
ENDBRANCH   3  22
BRANCH   3  28
ATOM     28  C28 ZIN AC000      -0.736   2.098   1.171  0.00  0.00    -0.031 A 
ATOM     29  C33 ZIN AC000      -2.036   1.664   1.350  0.00  0.00     0.009 A 
ATOM     30  C32 ZIN AC000      -2.777   2.126   2.422  0.00  0.00     0.001 A 
ATOM     31  C31 ZIN AC000      -2.220   3.028   3.309  0.00  0.00     0.000 A 
ATOM     32  C30 ZIN AC000      -0.922   3.466   3.127  0.00  0.00     0.001 A 
ATOM     33  C29 ZIN AC000      -0.179   3.000   2.058  0.00  0.00     0.009 A 
ENDBRANCH   3  28
TORSDOF 7
