REMARK  4 active torsions:
REMARK  status: ('A' for Active; 'I' for Inactive)
REMARK    1  A    between atoms: O2_2  and  C3_3 
REMARK    2  A    between atoms: C8_8  and  O9_9 
REMARK    3  A    between atoms: C16_15  and  C18_16 
REMARK    4  A    between atoms: C18_16  and  C19_17 
ROOT
ATOM      1  C3  ZIN AC000       0.606  -0.608  -1.056  0.00  0.00     0.102 A 
ATOM      2  C4  ZIN AC000       1.173   0.156  -2.062  0.00  0.00     0.047 A 
ATOM      3  C5  ZIN AC000       1.789  -0.456  -3.143  0.00  0.00    -0.045 A 
ATOM      4  C6  ZIN AC000       1.839  -1.831  -3.222  0.00  0.00    -0.018 A 
ATOM      5  C7  ZIN AC000       1.274  -2.601  -2.215  0.00  0.00     0.049 A 
ATOM      6  C8  ZIN AC000       0.663  -1.996  -1.131  0.00  0.00     0.102 A 
ATOM      7  C11 ZIN AC000       2.493  -2.537  -4.380  0.00  0.00     0.228 C 
ATOM      8  C13 ZIN AC000       3.308  -3.725  -3.853  0.00  0.00     0.116 C 
ATOM      9  C14 ZIN AC000       4.025  -4.362  -5.026  0.00  0.00     0.135 C 
ATOM     10  O15 ZIN AC000       3.995  -5.556  -5.203  0.00  0.00    -0.297 OA
ATOM     11  C16 ZIN AC000       4.781  -3.447  -5.968  0.00  0.00     0.081 C 
ATOM     12  C22 ZIN AC000       3.860  -2.280  -6.343  0.00  0.00     0.247 C 
ATOM     13  N23 ZIN AC000       3.388  -1.635  -5.108  0.00  0.00    -0.061 N 
ATOM     14  H24 ZIN AC000       4.180  -1.392  -4.533  0.00  0.00     0.280 HD
ATOM     15  C25 ZIN AC000       2.641  -0.416  -5.451  0.00  0.00     0.240 C 
ATOM     16  C26 ZIN AC000       2.396   0.413  -4.214  0.00  0.00     0.067 C 
ENDROOT
BRANCH  11  17
ATOM     17  C18 ZIN AC000       6.035  -2.913  -5.273  0.00  0.00     0.017 C 
BRANCH  17  18
ATOM     18  C19 ZIN AC000       6.991  -4.072  -4.986  0.00  0.00    -0.022 C 
ATOM     19  C20 ZIN AC000       7.482  -4.668  -6.307  0.00  0.00     0.009 C 
ATOM     20  C21 ZIN AC000       8.188  -3.559  -4.182  0.00  0.00     0.009 C 
ENDBRANCH  17  18
ENDBRANCH  11  17
BRANCH   6  21
ATOM     21  O9  ZIN AC000       0.111  -2.756  -0.147  0.00  0.00    -0.353 OA
ATOM     22  C10 ZIN AC000       0.198  -4.174  -0.297  0.00  0.00     0.210 C 
ENDBRANCH   6  21
BRANCH   1  23
ATOM     23  O2  ZIN AC000       0.002  -0.004   0.002  0.00  0.00    -0.353 OA
ATOM     24  C1  ZIN AC000      -0.017   1.425   0.010  0.00  0.00     0.210 C 
ENDBRANCH   1  23
TORSDOF 4
