REMARK  5 active torsions:
REMARK  status: ('A' for Active; 'I' for Inactive)
REMARK    1  A    between atoms: C2_2  and  C3_3 
REMARK    2  A    between atoms: C13_11  and  C15_12 
REMARK    3  A    between atoms: C15_12  and  O17_13 
REMARK    4  A    between atoms: C15_12  and  C18_14 
REMARK    5  A    between atoms: C21_17  and  O22_18 
ROOT
ATOM      1  C15 ZIN AC000       0.895  -3.177  -1.235  0.00  0.00     0.183 C 
ENDROOT
BRANCH   1   2
ATOM      2  C13 ZIN AC000      -0.591  -3.433  -0.971  0.00  0.00     0.221 C 
ATOM      3  N6  ZIN AC000      -1.347  -3.063  -2.169  0.00  0.00    -0.063 N 
ATOM      4  C5  ZIN AC000      -1.131  -1.653  -2.501  0.00  0.00     0.244 C 
ATOM      5  H7  ZIN AC000      -1.020  -3.626  -2.940  0.00  0.00     0.280 HD
ATOM      6  C8  ZIN AC000      -2.773  -3.333  -1.971  0.00  0.00     0.236 C 
ATOM      7  C3  ZIN AC000      -1.609  -0.764  -1.350  0.00  0.00     0.037 C 
ATOM      8  C10 ZIN AC000      -2.161  -1.655  -0.230  0.00  0.00    -0.002 C 
ATOM      9  C9  ZIN AC000      -3.307  -2.500  -0.802  0.00  0.00     0.033 C 
ATOM     10  C12 ZIN AC000      -1.042  -2.603   0.224  0.00  0.00     0.041 C 
BRANCH   7  11
ATOM     11  C2  ZIN AC000      -0.454   0.049  -0.827  0.00  0.00    -0.030 C 
ATOM     12  C1  ZIN AC000      -0.413   1.341  -1.039  0.00  0.00     0.007 C 
ENDBRANCH   7  11
ENDBRANCH   1   2
BRANCH   1  13
ATOM     13  O17 ZIN AC000       1.135  -1.769  -1.278  0.00  0.00    -0.389 OA
ATOM     14  H41 ZIN AC000       1.400  -1.389  -0.429  0.00  0.00     0.210 HD
ENDBRANCH   1  13
BRANCH   1  15
ATOM     15  C18 ZIN AC000       1.714  -3.794  -0.131  0.00  0.00    -0.014 A 
ATOM     16  C29 ZIN AC000       2.118  -3.051   0.942  0.00  0.00     0.030 A 
ATOM     17  C28 ZIN AC000       2.871  -3.643   1.953  0.00  0.00     0.118 A 
ATOM     18  N27 ZIN AC000       3.220  -4.906   1.905  0.00  0.00    -0.260 NA
ATOM     19  C26 ZIN AC000       2.863  -5.687   0.880  0.00  0.00     0.067 A 
ATOM     20  C19 ZIN AC000       2.091  -5.149  -0.180  0.00  0.00     0.004 A 
ATOM     21  C25 ZIN AC000       3.241  -7.040   0.835  0.00  0.00     0.035 A 
ATOM     22  C20 ZIN AC000       1.718  -5.972  -1.254  0.00  0.00     0.051 A 
ATOM     23  C21 ZIN AC000       2.104  -7.282  -1.266  0.00  0.00     0.069 A 
ATOM     24  C24 ZIN AC000       2.865  -7.813  -0.219  0.00  0.00     0.039 A 
BRANCH  23  25
ATOM     25  O22 ZIN AC000       1.744  -8.079  -2.305  0.00  0.00    -0.356 OA
ATOM     26  C23 ZIN AC000       2.177  -9.441  -2.260  0.00  0.00     0.210 C 
ENDBRANCH  23  25
ENDBRANCH   1  15
TORSDOF 5
