REMARK  3 active torsions:
REMARK  status: ('A' for Active; 'I' for Inactive)
REMARK    1  A    between atoms: C2_2  and  C4_3 
REMARK    2  A    between atoms: C2_2  and  N19_18 
REMARK    3  A    between atoms: C4_3  and  N5_4 
ROOT
ATOM      1  N5  ZIN AC000       0.197  -2.014   0.797  0.00  0.00    -0.343 N 
ATOM      2  C6  ZIN AC000      -0.966  -2.559   1.355  0.00  0.00     0.052 A 
ATOM      3  C7  ZIN AC000      -1.489  -2.037   2.526  0.00  0.00     0.031 A 
ATOM      4  C8  ZIN AC000      -2.637  -2.582   3.075  0.00  0.00     0.002 A 
ATOM      5  C9  ZIN AC000      -3.267  -3.647   2.461  0.00  0.00     0.002 A 
ATOM      6  C10 ZIN AC000      -2.752  -4.177   1.289  0.00  0.00     0.021 A 
ATOM      7  C11 ZIN AC000      -1.606  -3.636   0.736  0.00  0.00     0.032 A 
ATOM      8  S12 ZIN AC000      -0.933  -4.290  -0.758  0.00  0.00    -0.086 SA
ATOM      9  C13 ZIN AC000       0.785  -3.934  -0.563  0.00  0.00     0.032 A 
ATOM     10  C14 ZIN AC000       1.742  -4.740  -1.151  0.00  0.00     0.021 A 
ATOM     11  C15 ZIN AC000       3.085  -4.444  -0.988  0.00  0.00     0.002 A 
ATOM     12  C16 ZIN AC000       3.466  -3.346  -0.241  0.00  0.00     0.002 A 
ATOM     13  C17 ZIN AC000       2.512  -2.535   0.350  0.00  0.00     0.031 A 
ATOM     14  C18 ZIN AC000       1.163  -2.824   0.190  0.00  0.00     0.052 A 
ENDROOT
BRANCH   1  15
ATOM     15  C4  ZIN AC000       0.403  -0.565   0.845  0.00  0.00     0.162 C 
BRANCH  15  16
ATOM     16  C2  ZIN AC000      -0.072   0.061  -0.468  0.00  0.00     0.201 C 
ATOM     17  C1  ZIN AC000      -1.583  -0.132  -0.608  0.00  0.00     0.042 C 
BRANCH  16  18
ATOM     18  N19 ZIN AC000       0.240   1.497  -0.467  0.00  0.00    -0.073 N 
ATOM     19  H20 ZIN AC000      -0.214   1.939   0.319  0.00  0.00     0.279 HD
ATOM     20  C21 ZIN AC000       1.693   1.682  -0.360  0.00  0.00     0.269 C 
ATOM     21  C22 ZIN AC000      -0.241   2.104  -1.715  0.00  0.00     0.269 C 
ENDBRANCH  16  18
ENDBRANCH  15  16
ENDBRANCH   1  15
TORSDOF 3
