REMARK  15 active torsions:
REMARK  status: ('A' for Active; 'I' for Inactive)
REMARK    1  A    between atoms: C2_2  and  O4_3 
REMARK    2  A    between atoms: C2_2  and  C5_4 
REMARK       I    between atoms: C5_4  and  N7_6 
REMARK    3  A    between atoms: N7_6  and  C8_7 
REMARK    4  A    between atoms: C11_10  and  C12_11 
REMARK       I    between atoms: C12_11  and  N14_13 
REMARK    5  A    between atoms: N14_13  and  C15_14 
REMARK    6  A    between atoms: C15_14  and  C16_15 
REMARK    7  A    between atoms: C15_14  and  C18_17 
REMARK    8  A    between atoms: C16_15  and  O17_16 
REMARK    9  A    between atoms: C18_17  and  O19_18 
REMARK   10  A    between atoms: C22_21  and  C23_22 
REMARK       I    between atoms: C23_22  and  N25_24 
REMARK   11  A    between atoms: N25_24  and  C26_25 
REMARK   12  A    between atoms: C26_25  and  C27_26 
REMARK   13  A    between atoms: C26_25  and  C29_28 
REMARK   14  A    between atoms: C27_26  and  O28_27 
REMARK   15  A    between atoms: C29_28  and  O30_29 
ROOT
ATOM      1  C8  ZIN AC000       2.747  -0.609   2.532  0.00  0.00     0.070 A 
ATOM      2  C9  ZIN AC000       2.057  -1.065   3.645  0.00  0.00     0.051 A 
ATOM      3  I10 ZIN AC000      -0.033  -1.210   3.595  0.00  0.00    -0.041 I 
ATOM      4  C11 ZIN AC000       2.753  -1.428   4.801  0.00  0.00     0.068 A 
ATOM      5  C20 ZIN AC000       4.144  -1.332   4.833  0.00  0.00     0.040 A 
ATOM      6  I21 ZIN AC000       5.194  -1.876   6.563  0.00  0.00    -0.042 I 
ATOM      7  C22 ZIN AC000       4.834  -0.874   3.712  0.00  0.00     0.068 A 
ATOM      8  C31 ZIN AC000       4.131  -0.517   2.558  0.00  0.00     0.051 A 
ATOM      9  I32 ZIN AC000       5.167   0.172   0.873  0.00  0.00    -0.041 I 
ENDROOT
BRANCH   4  10
ATOM     10  C12 ZIN AC000       2.017  -1.915   5.986  0.00  0.00     0.254 C 
ATOM     11  O13 ZIN AC000       1.792  -3.102   6.117  0.00  0.00    -0.268 OA
ATOM     12  N14 ZIN AC000       1.596  -1.041   6.923  0.00  0.00    -0.348 N 
ATOM     13  H38 ZIN AC000       1.776  -0.094   6.818  0.00  0.00     0.163 HD
BRANCH  12  14
ATOM     14  C15 ZIN AC000       0.867  -1.523   8.098  0.00  0.00     0.132 C 
BRANCH  14  15
ATOM     15  C16 ZIN AC000       1.864  -1.967   9.171  0.00  0.00     0.191 C 
BRANCH  15  16
ATOM     16  O17 ZIN AC000       2.609  -0.836   9.626  0.00  0.00    -0.399 OA
ATOM     17  H42 ZIN AC000       3.262  -1.044  10.308  0.00  0.00     0.209 HD
ENDBRANCH  15  16
ENDBRANCH  14  15
BRANCH  14  18
ATOM     18  C18 ZIN AC000      -0.010  -0.398   8.651  0.00  0.00     0.191 C 
BRANCH  18  19
ATOM     19  O19 ZIN AC000       0.821   0.662   9.130  0.00  0.00    -0.399 OA
ATOM     20  H45 ZIN AC000       0.332   1.411   9.496  0.00  0.00     0.209 HD
ENDBRANCH  18  19
ENDBRANCH  14  18
ENDBRANCH  12  14
ENDBRANCH   4  10
BRANCH   1  21
ATOM     21  N7  ZIN AC000       2.045  -0.246   1.375  0.00  0.00    -0.323 N 
ATOM     22  C5  ZIN AC000       1.595   1.016   1.229  0.00  0.00     0.250 C 
ATOM     23  O6  ZIN AC000       1.718   1.813   2.135  0.00  0.00    -0.270 OA
ATOM     24  H37 ZIN AC000       1.883  -0.902   0.680  0.00  0.00     0.169 HD
BRANCH  22  25
ATOM     25  C2  ZIN AC000       0.939   1.437  -0.061  0.00  0.00     0.206 C 
ATOM     26  C1  ZIN AC000       1.963   1.379  -1.196  0.00  0.00     0.049 C 
BRANCH  25  27
ATOM     27  O4  ZIN AC000       0.447   2.772   0.069  0.00  0.00    -0.387 OA
ATOM     28  H36 ZIN AC000       0.012   3.110  -0.726  0.00  0.00     0.210 HD
ENDBRANCH  25  27
ENDBRANCH  22  25
ENDBRANCH   1  21
BRANCH   7  29
ATOM     29  C23 ZIN AC000       6.308  -0.770   3.742  0.00  0.00     0.254 C 
ATOM     30  O24 ZIN AC000       6.991  -1.715   3.397  0.00  0.00    -0.268 OA
ATOM     31  N25 ZIN AC000       6.895   0.372   4.151  0.00  0.00    -0.348 N 
ATOM     32  H46 ZIN AC000       6.350   1.126   4.426  0.00  0.00     0.163 HD
BRANCH  31  33
ATOM     33  C26 ZIN AC000       8.356   0.475   4.180  0.00  0.00     0.132 C 
BRANCH  33  34
ATOM     34  C27 ZIN AC000       8.867   0.881   2.796  0.00  0.00     0.191 C 
BRANCH  34  35
ATOM     35  O28 ZIN AC000       8.401   2.195   2.483  0.00  0.00    -0.399 OA
ATOM     36  H50 ZIN AC000       8.688   2.518   1.618  0.00  0.00     0.209 HD
ENDBRANCH  34  35
ENDBRANCH  33  34
BRANCH  33  37
ATOM     37  C29 ZIN AC000       8.772   1.530   5.207  0.00  0.00     0.191 C 
BRANCH  37  38
ATOM     38  O30 ZIN AC000       8.311   2.815   4.784  0.00  0.00    -0.399 OA
ATOM     39  H53 ZIN AC000       8.540   3.534   5.388  0.00  0.00     0.209 HD
ENDBRANCH  37  38
ENDBRANCH  33  37
ENDBRANCH  31  33
ENDBRANCH   7  29
TORSDOF 15
