REMARK  9 active torsions:
REMARK  status: ('A' for Active; 'I' for Inactive)
REMARK    1  A    between atoms: N2_2  and  C4_4 
REMARK    2  A    between atoms: C6_6  and  N7_7 
REMARK       I    between atoms: N7_7  and  C8_8 
REMARK    3  A    between atoms: C8_8  and  C10_10 
REMARK    4  A    between atoms: C10_10  and  N11_11 
REMARK    5  A    between atoms: N11_11  and  C14_14 
REMARK    6  A    between atoms: C18_18  and  O19_19 
REMARK    7  A    between atoms: C28_26  and  N30_27 
REMARK    8  A    between atoms: C36_33  and  C37_34 
REMARK       I    between atoms: C37_34  and  N38_35 
REMARK    9  A    between atoms: C42_39  and  O43_40 
ROOT
ATOM      1  C4  ZIN AC000      -1.205  -0.252   0.730  0.00  0.00     0.019 A 
ATOM      2  C5  ZIN AC000      -2.095   0.024   1.764  0.00  0.00     0.056 A 
ATOM      3  C6  ZIN AC000      -3.368  -0.524   1.756  0.00  0.00     0.070 A 
ATOM      4  C18 ZIN AC000      -3.765  -1.351   0.708  0.00  0.00     0.106 A 
ATOM      5  C20 ZIN AC000      -2.876  -1.620  -0.338  0.00  0.00     0.045 A 
ATOM      6  C21 ZIN AC000      -1.589  -1.069  -0.317  0.00  0.00    -0.020 A 
ATOM      7  C22 ZIN AC000      -0.621  -1.395  -1.425  0.00  0.00     0.051 C 
ATOM      8  C23 ZIN AC000      -1.376  -1.527  -2.745  0.00  0.00     0.030 C 
ATOM      9  C25 ZIN AC000      -0.419  -1.982  -3.851  0.00  0.00     0.021 C 
ATOM     10  C26 ZIN AC000      -1.241  -2.238  -5.110  0.00  0.00     0.074 C 
ATOM     11  C28 ZIN AC000      -0.371  -2.344  -6.347  0.00  0.00     0.255 C 
ATOM     12  C34 ZIN AC000       0.376  -3.643  -6.407  0.00  0.00     0.135 C 
ATOM     13  O35 ZIN AC000       1.470  -3.725  -7.178  0.00  0.00    -0.193 OA
ATOM     14  C36 ZIN AC000      -0.022  -4.750  -5.699  0.00  0.00     0.115 C 
ATOM     15  C40 ZIN AC000      -1.191  -4.686  -4.824  0.00  0.00     0.210 C 
ATOM     16  O41 ZIN AC000      -1.424  -5.581  -4.038  0.00  0.00    -0.288 OA
ATOM     17  C42 ZIN AC000      -2.093  -3.492  -4.925  0.00  0.00     0.194 C 
ATOM     18  C44 ZIN AC000      -2.841  -3.378  -3.623  0.00  0.00     0.201 C 
ATOM     19  O45 ZIN AC000      -3.787  -4.119  -3.436  0.00  0.00    -0.289 OA
ATOM     20  C46 ZIN AC000      -2.499  -2.519  -2.614  0.00  0.00     0.033 C 
ATOM     21  C47 ZIN AC000      -3.270  -2.492  -1.455  0.00  0.00     0.131 C 
ATOM     22  O48 ZIN AC000      -4.391  -3.240  -1.365  0.00  0.00    -0.190 OA
ENDROOT
BRANCH   3  23
ATOM     23  N7  ZIN AC000      -4.256  -0.246   2.803  0.00  0.00    -0.323 N 
ATOM     24  C8  ZIN AC000      -3.791  -0.092   4.059  0.00  0.00     0.247 C 
ATOM     25  O9  ZIN AC000      -2.597  -0.115   4.270  0.00  0.00    -0.271 OA
ATOM     26  H56 ZIN AC000      -5.206  -0.164   2.624  0.00  0.00     0.169 HD
BRANCH  24  27
ATOM     27  C10 ZIN AC000      -4.755   0.110   5.200  0.00  0.00     0.335 C 
BRANCH  27  28
ATOM     28  N11 ZIN AC000      -4.005   0.251   6.455  0.00  0.00    -0.059 N 
ATOM     29  H12 ZIN AC000      -3.460  -0.583   6.617  0.00  0.00     0.278 HD
ATOM     30  H13 ZIN AC000      -3.388   1.047   6.391  0.00  0.00     0.278 HD
BRANCH  28  31
ATOM     31  C14 ZIN AC000      -4.944   0.447   7.567  0.00  0.00     0.115 C 
ATOM     32  C15 ZIN AC000      -5.878  -0.760   7.665  0.00  0.00     0.045 C 
ATOM     33  C16 ZIN AC000      -4.162   0.594   8.874  0.00  0.00     0.045 C 
ATOM     34  C17 ZIN AC000      -5.769   1.712   7.321  0.00  0.00     0.045 C 
ENDBRANCH  28  31
ENDBRANCH  27  28
ENDBRANCH  24  27
ENDBRANCH   3  23
BRANCH   4  35
ATOM     35  O19 ZIN AC000      -5.010  -1.895   0.702  0.00  0.00    -0.357 OA
ATOM     36  H68 ZIN AC000      -5.675  -1.349   0.261  0.00  0.00     0.217 HD
ENDBRANCH   4  35
BRANCH   1  37
ATOM     37  N2  ZIN AC000       0.079   0.304   0.748  0.00  0.00    -0.291 NA
ATOM     38  C1  ZIN AC000       0.018   1.772   0.756  0.00  0.00     0.116 C 
ATOM     39  C3  ZIN AC000       0.854  -0.197   1.891  0.00  0.00     0.116 C 
ENDBRANCH   1  37
BRANCH  17  40
ATOM     40  O43 ZIN AC000      -2.994  -3.643  -6.023  0.00  0.00    -0.373 OA
ATOM     41  H81 ZIN AC000      -3.567  -4.419  -5.959  0.00  0.00     0.211 HD
ENDBRANCH  17  40
BRANCH  11  42
ATOM     42  N30 ZIN AC000      -1.222  -2.231  -7.539  0.00  0.00    -0.068 N 
ATOM     43  H31 ZIN AC000      -1.950  -2.929  -7.500  0.00  0.00     0.279 HD
ATOM     44  C32 ZIN AC000      -1.828  -0.893  -7.582  0.00  0.00     0.270 C 
ATOM     45  C33 ZIN AC000      -0.407  -2.438  -8.744  0.00  0.00     0.270 C 
ENDBRANCH  11  42
BRANCH  14  46
ATOM     46  C37 ZIN AC000       0.734  -6.007  -5.822  0.00  0.00     0.255 C 
ATOM     47  N38 ZIN AC000       0.276  -7.128  -5.230  0.00  0.00    -0.366 N 
ATOM     48  H79 ZIN AC000      -0.590  -7.127  -4.793  0.00  0.00     0.159 HD
ATOM     49  H80 ZIN AC000       0.813  -7.936  -5.242  0.00  0.00     0.159 HD
ATOM     50  O39 ZIN AC000       1.771  -6.034  -6.457  0.00  0.00    -0.268 OA
ENDBRANCH  14  46
TORSDOF 9
