REMARK  1 active torsions:
REMARK  status: ('A' for Active; 'I' for Inactive)
REMARK    1  A    between atoms: C19_18  and  C21_19 
ROOT
ATOM      1  C1  ZIN AC000       0.382   1.470  -0.075  0.00  0.00     0.153 C 
ATOM      2  N2  ZIN AC000       0.300   0.007  -0.063  0.00  0.00    -0.346 N 
ATOM      3  C3  ZIN AC000       0.292  -0.688  -1.339  0.00  0.00     0.228 A 
ATOM      4  C4  ZIN AC000       0.280  -2.173  -1.170  0.00  0.00     0.239 A 
ATOM      5  O5  ZIN AC000       0.298  -2.857  -2.171  0.00  0.00    -0.271 OA
ATOM      6  N6  ZIN AC000       0.252  -2.797   0.010  0.00  0.00    -0.323 N 
ATOM      7  C7  ZIN AC000       0.148  -2.091   1.286  0.00  0.00     0.185 A 
ATOM      8  C9  ZIN AC000      -1.186  -2.452   1.954  0.00  0.00     0.076 C 
ATOM      9  C10 ZIN AC000      -1.387  -3.943   1.864  0.00  0.00    -0.018 A 
ATOM     10  C11 ZIN AC000      -0.723  -4.758   1.016  0.00  0.00     0.045 A 
ATOM     11  N12 ZIN AC000      -1.144  -6.051   1.187  0.00  0.00    -0.356 N 
ATOM     12  C13 ZIN AC000      -2.099  -6.101   2.161  0.00  0.00     0.043 A 
ATOM     13  C14 ZIN AC000      -2.830  -7.157   2.699  0.00  0.00     0.030 A 
ATOM     14  C15 ZIN AC000      -3.738  -6.846   3.697  0.00  0.00     0.002 A 
ATOM     15  C16 ZIN AC000      -3.923  -5.551   4.151  0.00  0.00     0.001 A 
ATOM     16  C17 ZIN AC000      -3.217  -4.491   3.639  0.00  0.00     0.014 A 
ATOM     17  C18 ZIN AC000      -2.293  -4.776   2.630  0.00  0.00    -0.001 A 
ATOM     18  C19 ZIN AC000       0.326  -4.273   0.042  0.00  0.00     0.172 C 
ATOM     19  C30 ZIN AC000       0.244  -0.609   1.116  0.00  0.00     0.243 A 
ATOM     20  O31 ZIN AC000       0.263   0.077   2.116  0.00  0.00    -0.271 OA
ATOM     21  H39 ZIN AC000      -0.812  -6.816   0.690  0.00  0.00     0.166 HD
ENDROOT
BRANCH  18  22
ATOM     22  C21 ZIN AC000       0.049  -4.832  -1.330  0.00  0.00    -0.027 A 
ATOM     23  C29 ZIN AC000       1.056  -5.466  -2.034  0.00  0.00     0.049 A 
ATOM     24  C28 ZIN AC000       0.801  -5.985  -3.292  0.00  0.00     0.105 A 
ATOM     25  C24 ZIN AC000      -0.468  -5.857  -3.851  0.00  0.00     0.105 A 
ATOM     26  O27 ZIN AC000       1.602  -6.648  -4.176  0.00  0.00    -0.323 OA
ATOM     27  C23 ZIN AC000      -1.471  -5.215  -3.143  0.00  0.00     0.040 A 
ATOM     28  O25 ZIN AC000      -0.462  -6.439  -5.085  0.00  0.00    -0.323 OA
ATOM     29  C22 ZIN AC000      -1.211  -4.704  -1.884  0.00  0.00     0.012 A 
ATOM     30  C26 ZIN AC000       0.926  -6.564  -5.445  0.00  0.00     0.352 C 
ENDBRANCH  18  22
TORSDOF 1
