REMARK  11 active torsions:
REMARK  status: ('A' for Active; 'I' for Inactive)
REMARK    1  A    between atoms: C2_2  and  C4_4 
REMARK    2  A    between atoms: C4_4  and  N5_5 
REMARK    3  A    between atoms: N5_5  and  C6_6 
REMARK    4  A    between atoms: N5_5  and  C17_17 
REMARK    5  A    between atoms: C6_6  and  C7_7 
REMARK    6  A    between atoms: C7_7  and  N8_8 
REMARK    7  A    between atoms: N8_8  and  C9_9 
REMARK    8  A    between atoms: N8_8  and  C13_13 
REMARK    9  A    between atoms: C9_9  and  C10_10 
REMARK   10  A    between atoms: C13_13  and  C14_14 
REMARK   11  A    between atoms: C17_17  and  C18_18 
ROOT
ATOM      1  C6  ZIN AC000      -3.549   1.988   0.222  0.00  0.00     0.304 C 
ENDROOT
BRANCH   1   2
ATOM      2  N5  ZIN AC000      -2.137   1.805  -0.138  0.00  0.00     0.110 N 
BRANCH   2   3
ATOM      3  C4  ZIN AC000      -1.476   3.100  -0.350  0.00  0.00     0.385 C 
BRANCH   3   4
ATOM      4  C2  ZIN AC000      -2.170   3.841  -1.464  0.00  0.00     0.202 C 
ATOM      5  O1  ZIN AC000      -3.077   3.306  -2.080  0.00  0.00    -0.647 OA
ATOM      6  O3  ZIN AC000      -1.829   4.977  -1.746  0.00  0.00    -0.647 OA
ENDBRANCH   3   4
ENDBRANCH   2   3
BRANCH   2   7
ATOM      7  C17 ZIN AC000      -2.001   0.944  -1.320  0.00  0.00     0.385 C 
BRANCH   7   8
ATOM      8  C18 ZIN AC000      -0.606   0.376  -1.371  0.00  0.00     0.202 C 
ATOM      9  O19 ZIN AC000       0.169   0.581  -0.453  0.00  0.00    -0.647 OA
ATOM     10  O20 ZIN AC000      -0.253  -0.288  -2.330  0.00  0.00    -0.647 OA
ENDBRANCH   7   8
ENDBRANCH   2   7
ENDBRANCH   1   2
BRANCH   1  11
ATOM     11  C7  ZIN AC000      -3.644   2.673   1.586  0.00  0.00     0.304 C 
BRANCH  11  12
ATOM     12  N8  ZIN AC000      -5.057   2.856   1.946  0.00  0.00     0.110 N 
BRANCH  12  13
ATOM     13  C9  ZIN AC000      -5.717   1.561   2.159  0.00  0.00     0.385 C 
BRANCH  13  14
ATOM     14  C10 ZIN AC000      -5.018   0.817   3.267  0.00  0.00     0.202 C 
ATOM     15  O11 ZIN AC000      -4.107   1.348   3.878  0.00  0.00    -0.647 OA
ATOM     16  O12 ZIN AC000      -5.365  -0.317   3.553  0.00  0.00    -0.647 OA
ENDBRANCH  13  14
ENDBRANCH  12  13
BRANCH  12  17
ATOM     17  C13 ZIN AC000      -5.192   3.717   3.128  0.00  0.00     0.385 C 
BRANCH  17  18
ATOM     18  C14 ZIN AC000      -6.613   4.208   3.232  0.00  0.00     0.202 C 
ATOM     19  O15 ZIN AC000      -7.437   3.872   2.398  0.00  0.00    -0.647 OA
ATOM     20  O16 ZIN AC000      -6.939   4.942   4.149  0.00  0.00    -0.647 OA
ENDBRANCH  17  18
ENDBRANCH  12  17
ENDBRANCH  11  12
ENDBRANCH   1  11
TORSDOF 11
