REMARK  3 active torsions:
REMARK  status: ('A' for Active; 'I' for Inactive)
REMARK    1  A    between atoms: S2_2  and  C5_5 
REMARK    2  A    between atoms: C5_5  and  C6_6 
REMARK    3  A    between atoms: C6_6  and  S7_7 
ROOT
ATOM      1  O1  ZIN AC000       0.002  -0.004   0.002  0.00  0.00    -0.595 OA
ATOM      2  S2  ZIN AC000      -0.018   1.450   0.010  0.00  0.00     0.102 S 
ATOM      3  O3  ZIN AC000       1.341   1.970  -0.000  0.00  0.00    -0.595 OA
ATOM      4  O4  ZIN AC000      -0.752   1.947  -1.143  0.00  0.00    -0.595 OA
ENDROOT
BRANCH   2   5
ATOM      5  C5  ZIN AC000      -0.848   2.016   1.520  0.00  0.00     0.175 C 
BRANCH   5   6
ATOM      6  C6  ZIN AC000      -2.280   1.478   1.546  0.00  0.00     0.088 C 
BRANCH   6   7
ATOM      7  S7  ZIN AC000      -3.111   2.043   3.057  0.00  0.00    -0.181 SA
ATOM      8  H12 ZIN AC000      -4.339   1.504   2.947  0.00  0.00     0.101 HD
ENDBRANCH   6   7
ENDBRANCH   5   6
ENDBRANCH   2   5
TORSDOF 3
