REMARK  6 active torsions:
REMARK  status: ('A' for Active; 'I' for Inactive)
REMARK    1  A    between atoms: N2_2  and  C4_4 
REMARK    2  A    between atoms: C7_7  and  O8_8 
REMARK    3  A    between atoms: C17_15  and  N19_16 
REMARK    4  A    between atoms: C25_22  and  C26_23 
REMARK       I    between atoms: C26_23  and  N27_24 
REMARK    5  A    between atoms: C31_28  and  O32_29 
REMARK    6  A    between atoms: C36_33  and  O37_34 
ROOT
ATOM      1  C4  ZIN AC000      -0.191   0.377  -0.350  0.00  0.00     0.017 A 
ATOM      2  C5  ZIN AC000      -0.947   0.731   0.764  0.00  0.00     0.027 A 
ATOM      3  C6  ZIN AC000      -2.146   0.098   1.025  0.00  0.00     0.039 A 
ATOM      4  C7  ZIN AC000      -2.611  -0.894   0.175  0.00  0.00     0.079 A 
ATOM      5  C9  ZIN AC000      -1.863  -1.247  -0.955  0.00  0.00     0.039 A 
ATOM      6  C10 ZIN AC000      -0.644  -0.608  -1.209  0.00  0.00    -0.020 A 
ATOM      7  C11 ZIN AC000       0.178  -1.019  -2.403  0.00  0.00     0.051 C 
ATOM      8  C12 ZIN AC000      -0.747  -1.390  -3.559  0.00  0.00     0.030 C 
ATOM      9  C14 ZIN AC000       0.074  -1.926  -4.735  0.00  0.00     0.021 C 
ATOM     10  C15 ZIN AC000      -0.898  -2.413  -5.804  0.00  0.00     0.074 C 
ATOM     11  C17 ZIN AC000      -0.214  -2.629  -7.140  0.00  0.00     0.255 C 
ATOM     12  C23 ZIN AC000       0.635  -3.864  -7.150  0.00  0.00     0.135 C 
ATOM     13  O24 ZIN AC000       1.608  -3.974  -8.067  0.00  0.00    -0.193 OA
ATOM     14  C25 ZIN AC000       0.452  -4.886  -6.252  0.00  0.00     0.115 C 
ATOM     15  C29 ZIN AC000      -0.578  -4.786  -5.219  0.00  0.00     0.210 C 
ATOM     16  O30 ZIN AC000      -0.608  -5.576  -4.298  0.00  0.00    -0.288 OA
ATOM     17  C31 ZIN AC000      -1.594  -3.687  -5.328  0.00  0.00     0.194 C 
ATOM     18  C33 ZIN AC000      -2.148  -3.446  -3.949  0.00  0.00     0.201 C 
ATOM     19  O34 ZIN AC000      -2.983  -4.220  -3.520  0.00  0.00    -0.289 OA
ATOM     20  C35 ZIN AC000      -1.742  -2.433  -3.125  0.00  0.00     0.030 C 
ATOM     21  C36 ZIN AC000      -2.332  -2.297  -1.871  0.00  0.00     0.089 C 
ENDROOT
BRANCH  14  22
ATOM     22  C26 ZIN AC000       1.297  -6.089  -6.329  0.00  0.00     0.255 C 
ATOM     23  N27 ZIN AC000       1.048  -7.140  -5.522  0.00  0.00    -0.366 N 
ATOM     24  H57 ZIN AC000       0.367  -7.073  -4.835  0.00  0.00     0.159 HD
ATOM     25  H58 ZIN AC000       1.550  -7.963  -5.630  0.00  0.00     0.159 HD
ATOM     26  O28 ZIN AC000       2.219  -6.134  -7.120  0.00  0.00    -0.268 OA
ENDBRANCH  14  22
BRANCH  11  27
ATOM     27  N19 ZIN AC000      -1.239  -2.750  -8.186  0.00  0.00    -0.068 N 
ATOM     28  H20 ZIN AC000      -1.829  -3.544  -7.988  0.00  0.00     0.279 HD
ATOM     29  C21 ZIN AC000      -2.055  -1.529  -8.215  0.00  0.00     0.270 C 
ATOM     30  C22 ZIN AC000      -0.588  -2.936  -9.490  0.00  0.00     0.270 C 
ENDBRANCH  11  27
BRANCH  17  31
ATOM     31  O32 ZIN AC000      -2.628  -4.057  -6.241  0.00  0.00    -0.373 OA
ATOM     32  H59 ZIN AC000      -3.110  -4.857  -5.987  0.00  0.00     0.211 HD
ENDBRANCH  17  31
BRANCH  21  33
ATOM     33  O37 ZIN AC000      -3.350  -3.106  -1.507  0.00  0.00    -0.359 OA
ATOM     34  H60 ZIN AC000      -3.075  -3.882  -1.001  0.00  0.00     0.217 HD
ENDBRANCH  21  33
BRANCH   4  35
ATOM     35  O8  ZIN AC000      -3.786  -1.520   0.438  0.00  0.00    -0.360 OA
ATOM     36  H46 ZIN AC000      -4.557  -1.094   0.039  0.00  0.00     0.217 HD
ENDBRANCH   4  35
BRANCH   1  37
ATOM     37  N2  ZIN AC000       1.024   1.021  -0.604  0.00  0.00    -0.291 NA
ATOM     38  C1  ZIN AC000       0.828   2.467  -0.778  0.00  0.00     0.116 C 
ATOM     39  C3  ZIN AC000       1.999   0.747   0.460  0.00  0.00     0.116 C 
ENDBRANCH   1  37
TORSDOF 6
