REMARK  13 active torsions:
REMARK  status: ('A' for Active; 'I' for Inactive)
REMARK    1  A    between atoms: O2_2  and  C3_3 
REMARK    2  A    between atoms: C3_3  and  C5_5 
REMARK    3  A    between atoms: C5_5  and  C6_6 
REMARK    4  A    between atoms: C6_6  and  O7_7 
REMARK    5  A    between atoms: C6_6  and  C8_8 
REMARK    6  A    between atoms: C6_6  and  C15_15 
REMARK    7  A    between atoms: C8_8  and  C9_9 
REMARK    8  A    between atoms: C9_9  and  C10_10 
REMARK    9  A    between atoms: C10_10  and  C11_11 
REMARK   10  A    between atoms: C11_11  and  O14_14 
REMARK   11  A    between atoms: C15_15  and  O17_17 
REMARK   12  A    between atoms: O17_17  and  C18_18 
REMARK   13  A    between atoms: C20_19  and  O21_20 
ROOT
ATOM      1  C18 ZIN AC000       0.358  -0.088  -5.114  0.00  0.00     0.199 C 
ATOM      2  C20 ZIN AC000       1.180  -0.275  -6.400  0.00  0.00     0.074 C 
ATOM      3  C23 ZIN AC000       1.047   0.800  -7.193  0.00  0.00     0.048 C 
ATOM      4  C24 ZIN AC000       0.068   1.725  -6.523  0.00  0.00     0.158 C 
ATOM      5  C25 ZIN AC000      -1.303   1.410  -7.143  0.00  0.00     0.046 C 
ATOM      6  C26 ZIN AC000      -1.282   2.334  -8.403  0.00  0.00     0.030 C 
ATOM      7  C27 ZIN AC000       0.006   3.204  -8.226  0.00  0.00     0.236 C 
ATOM      8  N28 ZIN AC000       0.130   3.182  -6.744  0.00  0.00    -0.058 N 
ATOM      9  H29 ZIN AC000      -0.666   3.634  -6.321  0.00  0.00     0.281 HD
ATOM     10  C30 ZIN AC000       1.368   3.692  -6.163  0.00  0.00     0.241 C 
ATOM     11  C31 ZIN AC000       1.055   4.229  -4.780  0.00  0.00     0.067 C 
ATOM     12  C32 ZIN AC000       0.006   3.567  -3.951  0.00  0.00    -0.047 A 
ATOM     13  C33 ZIN AC000      -0.604   4.366  -2.975  0.00  0.00     0.047 A 
ATOM     14  C34 ZIN AC000      -1.602   3.813  -2.195  0.00  0.00     0.105 A 
ATOM     15  C35 ZIN AC000      -2.005   2.481  -2.373  0.00  0.00     0.105 A 
ATOM     16  C36 ZIN AC000      -1.400   1.686  -3.332  0.00  0.00     0.048 A 
ATOM     17  C37 ZIN AC000      -0.384   2.246  -4.102  0.00  0.00    -0.039 A 
ATOM     18  C38 ZIN AC000       0.322   1.434  -5.069  0.00  0.00     0.095 C 
ATOM     19  O40 ZIN AC000      -2.993   2.201  -1.495  0.00  0.00    -0.323 OA
ATOM     20  C41 ZIN AC000      -2.931   3.244  -0.500  0.00  0.00     0.352 C 
ATOM     21  O42 ZIN AC000      -2.338   4.359  -1.199  0.00  0.00    -0.323 OA
ENDROOT
BRANCH   1  22
ATOM     22  O17 ZIN AC000       1.045  -0.637  -3.960  0.00  0.00    -0.306 OA
BRANCH  22  23
ATOM     23  C15 ZIN AC000       0.713  -1.884  -3.589  0.00  0.00     0.294 C 
ATOM     24  O16 ZIN AC000      -0.124  -2.496  -4.209  0.00  0.00    -0.262 OA
BRANCH  23  25
ATOM     25  C6  ZIN AC000       1.385  -2.521  -2.400  0.00  0.00     0.154 C 
BRANCH  25  26
ATOM     26  C5  ZIN AC000       0.657  -2.104  -1.120  0.00  0.00     0.159 C 
BRANCH  26  27
ATOM     27  C3  ZIN AC000       0.598  -0.600  -1.043  0.00  0.00     0.261 C 
ATOM     28  O4  ZIN AC000       1.088   0.070  -1.921  0.00  0.00    -0.265 OA
BRANCH  27  29
ATOM     29  O2  ZIN AC000       0.002  -0.004   0.002  0.00  0.00    -0.326 OA
ATOM     30  C1  ZIN AC000      -0.018   1.448   0.010  0.00  0.00     0.213 C 
ENDBRANCH  27  29
ENDBRANCH  26  27
ENDBRANCH  25  26
BRANCH  25  31
ATOM     31  O7  ZIN AC000       2.746  -2.091  -2.335  0.00  0.00    -0.379 OA
ATOM     32  H48 ZIN AC000       3.269  -2.322  -3.115  0.00  0.00     0.211 HD
ENDBRANCH  25  31
BRANCH  25  33
ATOM     33  C8  ZIN AC000       1.336  -4.043  -2.541  0.00  0.00     0.049 C 
BRANCH  33  34
ATOM     34  C9  ZIN AC000       1.905  -4.691  -1.277  0.00  0.00     0.006 C 
BRANCH  34  35
ATOM     35  C10 ZIN AC000       1.857  -6.214  -1.418  0.00  0.00     0.037 C 
BRANCH  35  36
ATOM     36  C11 ZIN AC000       2.426  -6.862  -0.155  0.00  0.00     0.051 C 
ATOM     37  C12 ZIN AC000       2.493  -8.378  -0.345  0.00  0.00     0.045 C 
ATOM     38  C13 ZIN AC000       3.832  -6.318   0.108  0.00  0.00     0.045 C 
BRANCH  36  39
ATOM     39  O14 ZIN AC000       1.582  -6.558   0.958  0.00  0.00    -0.391 OA
ATOM     40  H61 ZIN AC000       0.673  -6.874   0.860  0.00  0.00     0.210 HD
ENDBRANCH  36  39
ENDBRANCH  35  36
ENDBRANCH  34  35
ENDBRANCH  33  34
ENDBRANCH  25  33
ENDBRANCH  23  25
ENDBRANCH  22  23
ENDBRANCH   1  22
BRANCH   2  41
ATOM     41  O21 ZIN AC000       1.930  -1.367  -6.691  0.00  0.00    -0.358 OA
ATOM     42  C22 ZIN AC000       2.627  -1.362  -7.938  0.00  0.00     0.209 C 
ENDBRANCH   2  41
TORSDOF 13
