REMARK  0 active torsions:
REMARK  status: ('A' for Active; 'I' for Inactive)
ROOT
ATOM      1  N1  <0> d          -0.011   0.966   0.007  0.00  0.00    -0.235 N 
ATOM      2  H2  <0> d           0.002  -0.004   0.002  0.00  0.00     0.174 HD
ATOM      3  H3  <0> d           0.822   1.462   0.002  0.00  0.00     0.174 HD
ATOM      4  C4  <0> d          -1.149   1.602   0.016  0.00  0.00     0.675 A 
ATOM      5  N5  <0> d          -1.256   2.966   0.018  0.00  0.00    -0.224 N 
ATOM      6  C6  <0> d          -2.679   3.333   0.008  0.00  0.00     0.169 A 
ATOM      7  C7  <0> d          -3.421   1.982  -0.014  0.00  0.00     0.160 A 
ATOM      8  C9  <0> d          -4.304   1.923  -1.226  0.00  0.00    -0.026 A 
ATOM      9  C10 <0> d          -5.149   3.027  -1.378  0.00  0.00     0.010 A 
ATOM     10  C11 <0> d          -6.054   3.103  -2.410  0.00  0.00     0.001 A 
ATOM     11  C12 <0> d          -6.136   2.059  -3.313  0.00  0.00     0.001 A 
ATOM     12  C13 <0> d          -5.294   0.982  -3.177  0.00  0.00     0.008 A 
ATOM     13  C14 <0> d          -4.348   0.913  -2.146  0.00  0.00    -0.045 A 
ATOM     14  C15 <0> d          -3.436  -0.268  -2.235  0.00  0.00     0.080 C 
ATOM     15  C16 <0> d          -3.226  -1.027  -0.966  0.00  0.00    -0.026 A 
ATOM     16  C17 <0> d          -3.651  -2.334  -0.835  0.00  0.00     0.010 A 
ATOM     17  C18 <0> d          -3.372  -3.036   0.324  0.00  0.00     0.001 A 
ATOM     18  C19 <0> d          -2.663  -2.436   1.348  0.00  0.00     0.002 A 
ATOM     19  C20 <0> d          -2.262  -1.118   1.233  0.00  0.00     0.031 A 
ATOM     20  C21 <0> d          -2.580  -0.401   0.087  0.00  0.00     0.059 A 
ATOM     21  N22 <0> d          -2.373   0.977   0.019  0.00  0.00    -0.173 N 
ATOM     22  H23 <0> d          -0.514   3.590   0.026  0.00  0.00     0.177 HD
ENDROOT
TORSDOF 0
