REMARK  1 active torsions:
REMARK  status: ('A' for Active; 'I' for Inactive)
REMARK    1  A    between atoms: N11_11  and  C12_12 
ROOT
ATOM      1  O1  ZIN AC000       0.117   0.386  -1.282  0.00  0.00    -0.267 OA
ATOM      2  C2  ZIN AC000       0.043   1.404  -0.623  0.00  0.00     0.262 A 
ATOM      3  C3  ZIN AC000      -1.190   2.179  -0.370  0.00  0.00     0.048 A 
ATOM      4  C4  ZIN AC000      -2.516   2.038  -0.745  0.00  0.00     0.018 A 
ATOM      5  C5  ZIN AC000      -3.452   2.971  -0.326  0.00  0.00     0.001 A 
ATOM      6  C6  ZIN AC000      -3.071   4.040   0.463  0.00  0.00     0.001 A 
ATOM      7  C7  ZIN AC000      -1.747   4.195   0.845  0.00  0.00     0.018 A 
ATOM      8  C8  ZIN AC000      -0.801   3.270   0.434  0.00  0.00     0.048 A 
ATOM      9  C9  ZIN AC000       0.655   3.119   0.643  0.00  0.00     0.262 A 
ATOM     10  O10 ZIN AC000       1.360   3.869   1.288  0.00  0.00    -0.267 OA
ATOM     11  N11 ZIN AC000       1.067   2.010   0.003  0.00  0.00    -0.266 N 
ENDROOT
BRANCH  11  12
ATOM     12  C12 ZIN AC000       2.452   1.532  -0.019  0.00  0.00     0.189 C 
ATOM     13  C19 ZIN AC000       3.380   2.689  -0.279  0.00  0.00     0.247 C 
ATOM     14  N18 ZIN AC000       3.904   3.401   0.732  0.00  0.00    -0.296 N 
ATOM     15  O20 ZIN AC000       3.660   2.984  -1.421  0.00  0.00    -0.271 OA
ATOM     16  C16 ZIN AC000       3.647   3.125   2.020  0.00  0.00     0.224 C 
ATOM     17  H29 ZIN AC000       4.491   4.144   0.523  0.00  0.00     0.171 HD
ATOM     18  C15 ZIN AC000       2.735   1.993   2.410  0.00  0.00     0.106 C 
ATOM     19  O17 ZIN AC000       4.161   3.801   2.886  0.00  0.00    -0.273 OA
ATOM     20  C14 ZIN AC000       2.797   0.903   1.335  0.00  0.00     0.045 C 
ENDBRANCH  11  12
TORSDOF 1
