REMARK  11 active torsions:
REMARK  status: ('A' for Active; 'I' for Inactive)
REMARK    1  A    between atoms: O2_2  and  C3_3 
REMARK    2  A    between atoms: C12_12  and  O13_13 
REMARK    3  A    between atoms: C14_14  and  C15_15 
REMARK    4  A    between atoms: C15_15  and  C16_16 
REMARK    5  A    between atoms: C17_17  and  C19_19 
REMARK    6  A    between atoms: C19_19  and  C20_20 
REMARK    7  A    between atoms: C20_20  and  C21_21 
REMARK    8  A    between atoms: C21_21  and  O23_23 
REMARK    9  A    between atoms: O23_23  and  C24_24 
REMARK   10  A    between atoms: C24_24  and  C25_25 
REMARK   11  A    between atoms: C25_25  and  N26_26 
ROOT
ATOM      1  C16 ZIN AC000       3.514   0.618   0.267  0.00  0.00    -0.020 C 
ATOM      2  C17 ZIN AC000       3.076   1.553   1.071  0.00  0.00    -0.087 C 
ATOM      3  C18 ZIN AC000       2.365   1.178   2.346  0.00  0.00     0.043 C 
ENDROOT
BRANCH   1   4
ATOM      4  C15 ZIN AC000       3.436  -0.830   0.679  0.00  0.00     0.072 C 
BRANCH   4   5
ATOM      5  C14 ZIN AC000       4.800  -1.460   0.564  0.00  0.00     0.013 A 
ATOM      6  C3  ZIN AC000       5.137  -2.175  -0.576  0.00  0.00     0.084 A 
ATOM      7  C4  ZIN AC000       6.396  -2.760  -0.690  0.00  0.00    -0.018 A 
ATOM      8  C5  ZIN AC000       6.759  -3.531  -1.933  0.00  0.00     0.052 C 
ATOM      9  C6  ZIN AC000       7.306  -2.635   0.329  0.00  0.00    -0.006 A 
ATOM     10  C11 ZIN AC000       8.717  -3.131   0.523  0.00  0.00     0.219 A 
ATOM     11  C7  ZIN AC000       6.979  -1.920   1.488  0.00  0.00     0.082 A 
ATOM     12  O10 ZIN AC000       9.140  -2.657   1.831  0.00  0.00    -0.313 OA
ATOM     13  C8  ZIN AC000       8.137  -1.958   2.389  0.00  0.00     0.297 A 
ATOM     14  O9  ZIN AC000       8.182  -1.433   3.484  0.00  0.00    -0.259 OA
ATOM     15  C12 ZIN AC000       5.709  -1.332   1.600  0.00  0.00     0.091 A 
BRANCH   6  16
ATOM     16  O2  ZIN AC000       4.239  -2.300  -1.586  0.00  0.00    -0.355 OA
ATOM     17  C1  ZIN AC000       4.322  -1.349  -2.649  0.00  0.00     0.210 C 
ENDBRANCH   6  16
BRANCH  15  18
ATOM     18  O13 ZIN AC000       5.376  -0.637   2.716  0.00  0.00    -0.359 OA
ATOM     19  H41 ZIN AC000       5.590   0.305   2.671  0.00  0.00     0.217 HD
ENDBRANCH  15  18
ENDBRANCH   4   5
ENDBRANCH   1   4
BRANCH   2  20
ATOM     20  C19 ZIN AC000       3.281   3.005   0.723  0.00  0.00     0.043 C 
BRANCH  20  21
ATOM     21  C20 ZIN AC000       2.036   3.541   0.013  0.00  0.00     0.115 C 
BRANCH  21  22
ATOM     22  C21 ZIN AC000       2.242   4.992  -0.335  0.00  0.00     0.259 C 
ATOM     23  O22 ZIN AC000       3.279   5.542  -0.046  0.00  0.00    -0.265 OA
BRANCH  22  24
ATOM     24  O23 ZIN AC000       1.274   5.675  -0.967  0.00  0.00    -0.320 OA
BRANCH  24  25
ATOM     25  C24 ZIN AC000       1.542   7.069  -1.271  0.00  0.00     0.206 C 
BRANCH  25  26
ATOM     26  C25 ZIN AC000       0.333   7.676  -1.986  0.00  0.00     0.261 C 
BRANCH  26  27
ATOM     27  N26 ZIN AC000      -0.819   7.691  -1.074  0.00  0.00    -0.065 N 
ATOM     28  H27 ZIN AC000      -0.984   6.759  -0.726  0.00  0.00     0.280 HD
ATOM     29  C32 ZIN AC000      -0.540   8.593   0.051  0.00  0.00     0.261 C 
ATOM     30  C31 ZIN AC000      -1.741   8.607   1.000  0.00  0.00     0.195 C 
ATOM     31  O30 ZIN AC000      -2.908   9.012   0.278  0.00  0.00    -0.388 OA
ATOM     32  C29 ZIN AC000      -3.207   8.177  -0.843  0.00  0.00     0.195 C 
ATOM     33  C28 ZIN AC000      -2.009   8.162  -1.796  0.00  0.00     0.261 C 
ENDBRANCH  26  27
ENDBRANCH  25  26
ENDBRANCH  24  25
ENDBRANCH  22  24
ENDBRANCH  21  22
ENDBRANCH  20  21
ENDBRANCH   2  20
TORSDOF 11
