REMARK  9 active torsions:
REMARK  status: ('A' for Active; 'I' for Inactive)
REMARK    1  A    between atoms: C5_5  and  C6_6 
REMARK       I    between atoms: C6_6  and  N8_8 
REMARK    2  A    between atoms: N8_8  and  C9_9 
REMARK    3  A    between atoms: C9_9  and  C10_10 
REMARK    4  A    between atoms: C10_10  and  C11_11 
REMARK    5  A    between atoms: C14_14  and  S15_15 
REMARK    6  A    between atoms: S15_15  and  N18_18 
REMARK    7  A    between atoms: C19_19  and  O20_20 
REMARK    8  A    between atoms: C19_19  and  N21_21 
REMARK    9  A    between atoms: N21_21  and  C22_22 
ROOT
ATOM      1  C11 ZIN AC000       0.107  -8.301  -2.716  0.00  0.00    -0.057 A 
ATOM      2  C12 ZIN AC000       1.314  -8.975  -2.721  0.00  0.00     0.009 A 
ATOM      3  C13 ZIN AC000       1.333 -10.357  -2.730  0.00  0.00     0.026 A 
ATOM      4  C14 ZIN AC000       0.146 -11.066  -2.734  0.00  0.00     0.081 A 
ATOM      5  C28 ZIN AC000      -1.061 -10.391  -2.728  0.00  0.00     0.026 A 
ATOM      6  C29 ZIN AC000      -1.080  -9.009  -2.715  0.00  0.00     0.009 A 
ENDROOT
BRANCH   4   7
ATOM      7  S15 ZIN AC000       0.171 -12.827  -2.746  0.00  0.00     0.286 S 
ATOM      8  O16 ZIN AC000      -1.073 -13.242  -3.292  0.00  0.00    -0.198 OA
ATOM      9  O17 ZIN AC000       1.426 -13.207  -3.293  0.00  0.00    -0.198 OA
BRANCH   7  10
ATOM     10  N18 ZIN AC000       0.179 -13.328  -1.167  0.00  0.00    -0.117 NA
ATOM     11  C19 ZIN AC000       0.197 -14.599  -0.888  0.00  0.00     0.251 C 
BRANCH  11  12
ATOM     12  O20 ZIN AC000       0.210 -15.509  -1.886  0.00  0.00    -0.331 OA
ATOM     13  H43 ZIN AC000       0.223 -16.427  -1.581  0.00  0.00     0.221 HD
ENDBRANCH  11  12
BRANCH  11  14
ATOM     14  N21 ZIN AC000       0.204 -15.014   0.421  0.00  0.00    -0.350 N 
ATOM     15  H44 ZIN AC000       0.195 -14.360   1.137  0.00  0.00     0.163 HD
BRANCH  14  16
ATOM     16  C22 ZIN AC000       0.224 -16.445   0.735  0.00  0.00     0.085 C 
ATOM     17  C27 ZIN AC000      -0.382 -16.671   2.122  0.00  0.00     0.025 C 
ATOM     18  C26 ZIN AC000      -0.360 -18.165   2.450  0.00  0.00     0.002 C 
ATOM     19  C25 ZIN AC000       1.084 -18.670   2.436  0.00  0.00     0.000 C 
ATOM     20  C24 ZIN AC000       1.690 -18.444   1.050  0.00  0.00     0.002 C 
ATOM     21  C23 ZIN AC000       1.669 -16.949   0.721  0.00  0.00     0.025 C 
ENDBRANCH  14  16
ENDBRANCH  11  14
ENDBRANCH   7  10
ENDBRANCH   4   7
BRANCH   1  22
ATOM     22  C10 ZIN AC000       0.085  -6.794  -2.707  0.00  0.00     0.058 C 
BRANCH  22  23
ATOM     23  C9  ZIN AC000       0.085  -6.294  -1.261  0.00  0.00     0.127 C 
BRANCH  23  24
ATOM     24  N8  ZIN AC000       0.064  -4.829  -1.252  0.00  0.00    -0.355 N 
ATOM     25  C6  ZIN AC000       0.060  -4.162  -0.080  0.00  0.00     0.271 C 
ATOM     26  O7  ZIN AC000       0.074  -4.777   0.968  0.00  0.00    -0.266 OA
ATOM     27  H36 ZIN AC000       0.053  -4.338  -2.088  0.00  0.00     0.162 HD
BRANCH  25  28
ATOM     28  C5  ZIN AC000       0.039  -2.681  -0.070  0.00  0.00     0.141 A 
ATOM     29  N4  ZIN AC000       0.024  -2.007  -1.217  0.00  0.00    -0.252 NA
ATOM     30  C3  ZIN AC000       0.006  -0.689  -1.204  0.00  0.00     0.144 A 
ATOM     31  C2  ZIN AC000       0.002  -0.004   0.002  0.00  0.00     0.048 A 
ATOM     32  C1  ZIN AC000      -0.018   1.503   0.010  0.00  0.00     0.072 C 
ATOM     33  N31 ZIN AC000       0.022  -0.669   1.144  0.00  0.00    -0.262 NA
ATOM     34  C30 ZIN AC000       0.035  -1.990   1.141  0.00  0.00     0.154 A 
ENDBRANCH  25  28
ENDBRANCH  23  24
ENDBRANCH  22  23
ENDBRANCH   1  22
TORSDOF 9
