REMARK  4 active torsions:
REMARK  status: ('A' for Active; 'I' for Inactive)
REMARK    1  A    between atoms: C7_6  and  N9_7 
REMARK       I    between atoms: N9_7  and  C10_8 
REMARK    2  A    between atoms: C10_8  and  C12_10 
REMARK    3  A    between atoms: C12_10  and  C13_11 
REMARK    4  A    between atoms: C22_20  and  C24_21 
ROOT
ATOM      1  C1  <0> d          -0.019   1.526   0.010  0.00  0.00     0.029 C 
ATOM      2  C2  <0> d           0.002  -0.004   0.002  0.00  0.00     0.029 C 
ATOM      3  C3  <0> d          -1.413  -0.575  -0.105  0.00  0.00     0.029 C 
ATOM      4  S4  <0> d           1.091  -0.652  -1.336  0.00  0.00    -0.135 SA
ATOM      5  C5  <0> d           2.633  -0.517  -0.354  0.00  0.00     0.160 C 
ATOM      6  C7  <0> d           3.348  -1.844  -0.128  0.00  0.00     0.199 C 
ATOM      7  C19 <0> d           2.955  -1.578   1.301  0.00  0.00     0.227 C 
ATOM      8  O20 <0> d           3.228  -2.150   2.334  0.00  0.00    -0.277 OA
ATOM      9  N21 <0> d           2.194  -0.470   1.047  0.00  0.00    -0.219 NA
ATOM     10  C22 <0> d           0.745  -0.566   1.244  0.00  0.00     0.186 C 
ENDROOT
BRANCH   6  11
ATOM     11  N9  <0> d           2.685  -3.001  -0.734  0.00  0.00    -0.346 N 
ATOM     12  C10 <0> d           3.401  -4.096  -1.056  0.00  0.00     0.222 C 
ATOM     13  O11 <0> d           4.595  -4.124  -0.843  0.00  0.00    -0.273 OA
ATOM     14  H33 <0> d           1.730  -2.978  -0.904  0.00  0.00     0.163 HD
BRANCH  12  15
ATOM     15  C12 <0> d           2.719  -5.286  -1.679  0.00  0.00     0.141 C 
BRANCH  15  16
ATOM     16  C13 <0> d           3.735  -6.369  -1.940  0.00  0.00    -0.050 A 
ATOM     17  C18 <0> d           3.997  -7.318  -0.970  0.00  0.00     0.007 A 
ATOM     18  C17 <0> d           4.926  -8.314  -1.210  0.00  0.00     0.001 A 
ATOM     19  C16 <0> d           5.599  -8.354  -2.416  0.00  0.00     0.000 A 
ATOM     20  C15 <0> d           5.342  -7.401  -3.384  0.00  0.00     0.001 A 
ATOM     21  C14 <0> d           4.410  -6.408  -3.146  0.00  0.00     0.007 A 
ENDBRANCH  15  16
ENDBRANCH  12  15
ENDBRANCH   6  11
BRANCH  10  22
ATOM     22  C24 <0> d           0.354   0.217   2.472  0.00  0.00     0.193 C 
ATOM     23  O25 <0> d           1.175   0.924   3.030  0.00  0.00    -0.647 OA
ATOM     24  O26 <0> d          -0.782   0.142   2.907  0.00  0.00    -0.647 OA
ENDBRANCH  10  22
TORSDOF 4
