REMARK  5 active torsions:
REMARK  status: ('A' for Active; 'I' for Inactive)
REMARK    1  A    between atoms: N1_1  and  C2_2 
REMARK    2  A    between atoms: N6_6  and  C7_7 
REMARK    3  A    between atoms: C10_9  and  C12_10 
REMARK    4  A    between atoms: C12_10  and  O13_11 
REMARK    5  A    between atoms: C14_12  and  O16_13 
ROOT
ATOM      1  C7  ZIN AC000       0.001  -4.173  -0.023  0.00  0.00     0.307 C 
ATOM      2  O9  ZIN AC000      -0.855  -4.660  -1.078  0.00  0.00    -0.350 OA
ATOM      3  C10 ZIN AC000      -1.233  -6.001  -0.726  0.00  0.00     0.182 C 
ATOM      4  C14 ZIN AC000      -1.169  -6.107   0.810  0.00  0.00     0.226 C 
ATOM      5  C17 ZIN AC000      -0.665  -4.715   1.268  0.00  0.00     0.314 C 
ATOM      6  F18 ZIN AC000       0.268  -4.837   2.304  0.00  0.00    -0.198 F 
ATOM      7  F19 ZIN AC000      -1.734  -3.899   1.654  0.00  0.00    -0.198 F 
ENDROOT
BRANCH   1   8
ATOM      8  N6  ZIN AC000       0.026  -2.708  -0.014  0.00  0.00    -0.275 N 
ATOM      9  C4  ZIN AC000      -1.129  -2.018  -0.004  0.00  0.00     0.352 A 
ATOM     10  N3  ZIN AC000      -1.135  -0.687   0.004  0.00  0.00    -0.177 NA
ATOM     11  O5  ZIN AC000      -2.189  -2.623  -0.003  0.00  0.00    -0.244 OA
ATOM     12  C2  ZIN AC000       0.002  -0.004   0.002  0.00  0.00     0.128 A 
ATOM     13  C21 ZIN AC000       1.230  -0.697  -0.013  0.00  0.00     0.067 A 
ATOM     14  C20 ZIN AC000       1.220  -2.050  -0.016  0.00  0.00     0.102 A 
BRANCH  12  15
ATOM     15  N1  ZIN AC000      -0.017   1.371   0.010  0.00  0.00    -0.384 N 
ATOM     16  H22 ZIN AC000       0.817   1.868   0.004  0.00  0.00     0.157 HD
ATOM     17  H23 ZIN AC000      -0.863   1.845   0.016  0.00  0.00     0.157 HD
ENDBRANCH  12  15
ENDBRANCH   1   8
BRANCH   4  18
ATOM     18  O16 ZIN AC000      -0.246  -7.126   1.203  0.00  0.00    -0.387 OA
ATOM     19  H27 ZIN AC000      -0.166  -7.236   2.160  0.00  0.00     0.210 HD
ENDBRANCH   4  18
BRANCH   3  20
ATOM     20  C12 ZIN AC000      -2.657  -6.285  -1.210  0.00  0.00     0.199 C 
BRANCH  20  21
ATOM     21  O13 ZIN AC000      -2.683  -6.284  -2.639  0.00  0.00    -0.398 OA
ATOM     22  H26 ZIN AC000      -3.556  -6.457  -3.017  0.00  0.00     0.209 HD
ENDBRANCH  20  21
ENDBRANCH   3  20
TORSDOF 5
