REMARK  8 active torsions:
REMARK  status: ('A' for Active; 'I' for Inactive)
REMARK    1  A    between atoms: O1_1  and  C2_2 
REMARK    2  A    between atoms: C2_2  and  C3_3 
REMARK    3  A    between atoms: C3_3  and  N4_4 
REMARK    4  A    between atoms: N7_7  and  C9_9 
REMARK    5  A    between atoms: C9_9  and  C10_10 
REMARK    6  A    between atoms: C10_10  and  C11_11 
REMARK    7  A    between atoms: C11_11  and  N12_12 
REMARK    8  A    between atoms: C23_23  and  C24_24 
ROOT
ATOM      1  N12 ZIN AC000      -8.609   1.506  -4.739  0.00  0.00    -0.345 N 
ATOM      2  C13 ZIN AC000      -9.316   2.670  -4.448  0.00  0.00     0.052 A 
ATOM      3  C14 ZIN AC000      -8.630   3.752  -3.908  0.00  0.00     0.031 A 
ATOM      4  C15 ZIN AC000      -9.299   4.925  -3.611  0.00  0.00     0.002 A 
ATOM      5  C16 ZIN AC000     -10.656   5.030  -3.848  0.00  0.00     0.002 A 
ATOM      6  C17 ZIN AC000     -11.348   3.959  -4.382  0.00  0.00     0.021 A 
ATOM      7  C18 ZIN AC000     -10.684   2.777  -4.683  0.00  0.00     0.032 A 
ATOM      8  S19 ZIN AC000     -11.590   1.426  -5.356  0.00  0.00    -0.086 SA
ATOM      9  C20 ZIN AC000     -10.526   0.049  -5.092  0.00  0.00     0.032 A 
ATOM     10  C21 ZIN AC000     -11.047  -1.236  -5.164  0.00  0.00     0.022 A 
ATOM     11  C22 ZIN AC000     -10.229  -2.332  -4.958  0.00  0.00     0.017 A 
ATOM     12  C23 ZIN AC000      -8.888  -2.149  -4.679  0.00  0.00     0.050 A 
ATOM     13  C28 ZIN AC000      -8.362  -0.873  -4.606  0.00  0.00     0.047 A 
ATOM     14  C29 ZIN AC000      -9.177   0.237  -4.817  0.00  0.00     0.053 A 
ENDROOT
BRANCH   1  15
ATOM     15  C11 ZIN AC000      -7.170   1.626  -4.987  0.00  0.00     0.131 C 
BRANCH  15  16
ATOM     16  C10 ZIN AC000      -6.412   1.481  -3.666  0.00  0.00     0.048 C 
BRANCH  16  17
ATOM     17  C9  ZIN AC000      -4.909   1.607  -3.924  0.00  0.00     0.236 C 
BRANCH  17  18
ATOM     18  N7  ZIN AC000      -4.181   1.468  -2.655  0.00  0.00    -0.068 N 
ATOM     19  C6  ZIN AC000      -2.750   1.706  -2.884  0.00  0.00     0.265 C 
ATOM     20  C5  ZIN AC000      -1.994   1.580  -1.560  0.00  0.00     0.300 C 
ATOM     21  N4  ZIN AC000      -2.201   0.234  -1.007  0.00  0.00     0.093 N 
ATOM     22  C31 ZIN AC000      -3.632  -0.029  -0.796  0.00  0.00     0.300 C 
ATOM     23  C30 ZIN AC000      -4.374   0.111  -2.127  0.00  0.00     0.265 C 
ATOM     24  H8  ZIN AC000      -4.532   2.141  -1.991  0.00  0.00     0.280 HD
BRANCH  21  25
ATOM     25  C3  ZIN AC000      -1.444   0.054   0.239  0.00  0.00     0.298 C 
BRANCH  25  26
ATOM     26  C2  ZIN AC000      -1.670   1.260   1.152  0.00  0.00     0.194 C 
BRANCH  26  27
ATOM     27  O1  ZIN AC000      -3.037   1.294   1.567  0.00  0.00    -0.399 OA
ATOM     28  H32 ZIN AC000      -3.253   2.034   2.150  0.00  0.00     0.209 HD
ENDBRANCH  26  27
ENDBRANCH  25  26
ENDBRANCH  21  25
ENDBRANCH  17  18
ENDBRANCH  16  17
ENDBRANCH  15  16
ENDBRANCH   1  15
BRANCH  12  29
ATOM     29  C24 ZIN AC000      -7.997  -3.343  -4.454  0.00  0.00     0.417 C 
ATOM     30  F25 ZIN AC000      -8.749  -4.516  -4.578  0.00  0.00    -0.166 F 
ATOM     31  F26 ZIN AC000      -6.970  -3.344  -5.404  0.00  0.00    -0.166 F 
ATOM     32  F27 ZIN AC000      -7.445  -3.277  -3.170  0.00  0.00    -0.166 F 
ENDBRANCH  12  29
TORSDOF 8
