REMARK  1 active torsions:
REMARK  status: ('A' for Active; 'I' for Inactive)
REMARK       I    between atoms: N1_1  and  C2_2 
REMARK    1  A    between atoms: C2_2  and  C4_4 
ROOT
ATOM      1  C4  <0> d          -1.271  -0.762   0.010  0.00  0.00     0.141 A 
ATOM      2  C5  <0> d          -1.254  -2.156   0.008  0.00  0.00     0.153 A 
ATOM      3  N6  <0> d          -2.392  -2.828   0.015  0.00  0.00    -0.269 NA
ATOM      4  C7  <0> d          -3.543  -2.180   0.024  0.00  0.00     0.135 A 
ATOM      5  C8  <0> d          -3.563  -0.792   0.026  0.00  0.00     0.136 A 
ATOM      6  N9  <0> d          -2.433  -0.115   0.025  0.00  0.00    -0.253 NA
ENDROOT
BRANCH   1   7
ATOM      7  C2  <0> d           0.002  -0.004   0.002  0.00  0.00     0.269 C 
ATOM      8  N1  <0> d          -0.016   1.344   0.009  0.00  0.00    -0.365 N 
ATOM      9  H10 <0> d           0.817   1.840   0.004  0.00  0.00     0.159 HD
ATOM     10  H11 <0> d          -0.863   1.817   0.016  0.00  0.00     0.159 HD
ATOM     11  O3  <0> d           1.062  -0.597  -0.011  0.00  0.00    -0.266 OA
ENDBRANCH   1   7
TORSDOF 1
