REMARK  14 active torsions:
REMARK  status: ('A' for Active; 'I' for Inactive)
REMARK    1  A    between atoms: C2_2  and  N5_5 
REMARK       I    between atoms: N5_5  and  C6_6 
REMARK    2  A    between atoms: C6_6  and  C8_8 
REMARK    3  A    between atoms: N11_10  and  C12_11 
REMARK    4  A    between atoms: C12_11  and  C13_12 
REMARK    5  A    between atoms: N21_20  and  C23_22 
REMARK    6  A    between atoms: C23_22  and  C24_23 
REMARK    7  A    between atoms: C24_23  and  O26_24 
REMARK    8  A    between atoms: C24_23  and  C27_25 
REMARK    9  A    between atoms: C27_25  and  C28_26 
REMARK   10  A    between atoms: C28_26  and  C30_27 
REMARK   11  A    between atoms: C28_26  and  C37_34 
REMARK   12  A    between atoms: C30_27  and  C31_28 
REMARK       I    between atoms: C37_34  and  N39_36 
REMARK   13  A    between atoms: N39_36  and  C40_37 
REMARK   14  A    between atoms: C49_45  and  O51_46 
ROOT
ATOM      1  C24 ZIN AC000       5.132   1.877  -2.816  0.00  0.00     0.145 C 
ENDROOT
BRANCH   1   2
ATOM      2  C23 ZIN AC000       3.856   1.133  -2.417  0.00  0.00     0.267 C 
BRANCH   2   3
ATOM      3  N21 ZIN AC000       3.776  -0.134  -3.156  0.00  0.00    -0.052 N 
ATOM      4  C8  ZIN AC000       2.644  -0.924  -2.652  0.00  0.00     0.307 C 
ATOM      5  C10 ZIN AC000       2.572  -2.252  -3.408  0.00  0.00     0.316 C 
ATOM      6  N11 ZIN AC000       2.405  -1.986  -4.844  0.00  0.00     0.096 N 
ATOM      7  C19 ZIN AC000       3.518  -1.175  -5.358  0.00  0.00     0.300 C 
ATOM      8  C20 ZIN AC000       3.582   0.144  -4.585  0.00  0.00     0.266 C 
ATOM      9  H22 ZIN AC000       4.632  -0.653  -3.027  0.00  0.00     0.281 HD
BRANCH   4  10
ATOM     10  C6  ZIN AC000       2.836  -1.193  -1.181  0.00  0.00     0.251 C 
ATOM     11  N5  ZIN AC000       1.786  -1.566  -0.422  0.00  0.00    -0.351 N 
ATOM     12  H61 ZIN AC000       0.907  -1.661  -0.823  0.00  0.00     0.163 HD
ATOM     13  O7  ZIN AC000       3.934  -1.074  -0.681  0.00  0.00    -0.271 OA
BRANCH  11  14
ATOM     14  C2  ZIN AC000       1.972  -1.828   1.007  0.00  0.00     0.022 C 
ATOM     15  C1  ZIN AC000       2.494  -0.564   1.693  0.00  0.00     0.037 C 
ATOM     16  C3  ZIN AC000       2.982  -2.962   1.190  0.00  0.00     0.037 C 
ATOM     17  C4  ZIN AC000       0.633  -2.231   1.630  0.00  0.00     0.037 C 
ENDBRANCH  11  14
ENDBRANCH   4  10
BRANCH   6  18
ATOM     18  C12 ZIN AC000       2.274  -3.239  -5.600  0.00  0.00     0.312 C 
BRANCH  18  19
ATOM     19  C13 ZIN AC000       2.351  -2.945  -7.076  0.00  0.00    -0.013 A 
ATOM     20  C18 ZIN AC000       3.570  -2.953  -7.728  0.00  0.00     0.125 A 
ATOM     21  N17 ZIN AC000       3.645  -2.702  -9.020  0.00  0.00    -0.273 NA
ATOM     22  C16 ZIN AC000       2.573  -2.425  -9.736  0.00  0.00     0.116 A 
ATOM     23  C15 ZIN AC000       1.321  -2.394  -9.152  0.00  0.00     0.020 A 
ATOM     24  C14 ZIN AC000       1.202  -2.659  -7.796  0.00  0.00     0.012 A 
ENDBRANCH  18  19
ENDBRANCH   6  18
ENDBRANCH   2   3
ENDBRANCH   1   2
BRANCH   1  25
ATOM     25  O26 ZIN AC000       5.033   2.295  -4.179  0.00  0.00    -0.394 OA
ATOM     26  H76 ZIN AC000       4.290   2.888  -4.355  0.00  0.00     0.210 HD
ENDBRANCH   1  25
BRANCH   1  27
ATOM     27  C27 ZIN AC000       5.310   3.103  -1.918  0.00  0.00     0.047 C 
BRANCH  27  28
ATOM     28  C28 ZIN AC000       6.611   3.820  -2.286  0.00  0.00     0.084 C 
BRANCH  28  29
ATOM     29  C30 ZIN AC000       6.501   4.378  -3.706  0.00  0.00     0.052 C 
BRANCH  29  30
ATOM     30  C31 ZIN AC000       7.776   5.098  -4.062  0.00  0.00    -0.057 A 
ATOM     31  C36 ZIN AC000       8.858   4.388  -4.550  0.00  0.00     0.007 A 
ATOM     32  C35 ZIN AC000      10.026   5.049  -4.880  0.00  0.00     0.001 A 
ATOM     33  C34 ZIN AC000      10.115   6.419  -4.715  0.00  0.00     0.000 A 
ATOM     34  C33 ZIN AC000       9.036   7.128  -4.223  0.00  0.00     0.001 A 
ATOM     35  C32 ZIN AC000       7.866   6.467  -3.896  0.00  0.00     0.007 A 
ENDBRANCH  29  30
ENDBRANCH  28  29
BRANCH  28  36
ATOM     36  C37 ZIN AC000       6.852   4.950  -1.319  0.00  0.00     0.222 C 
ATOM     37  O38 ZIN AC000       5.923   5.429  -0.702  0.00  0.00    -0.273 OA
ATOM     38  N39 ZIN AC000       8.099   5.428  -1.139  0.00  0.00    -0.350 N 
ATOM     39  H86 ZIN AC000       8.825   5.110  -1.697  0.00  0.00     0.163 HD
BRANCH  38  40
ATOM     40  C40 ZIN AC000       8.357   6.429  -0.100  0.00  0.00     0.147 C 
ATOM     41  C49 ZIN AC000       9.599   7.270  -0.464  0.00  0.00     0.149 C 
ATOM     42  C48 ZIN AC000      10.230   7.541   0.920  0.00  0.00     0.073 C 
ATOM     43  C47 ZIN AC000       9.780   6.390   1.794  0.00  0.00    -0.047 A 
ATOM     44  C42 ZIN AC000       8.704   5.751   1.208  0.00  0.00    -0.027 A 
ATOM     45  C46 ZIN AC000      10.274   5.938   3.006  0.00  0.00     0.008 A 
ATOM     46  C43 ZIN AC000       8.123   4.662   1.835  0.00  0.00     0.010 A 
ATOM     47  C44 ZIN AC000       8.617   4.213   3.045  0.00  0.00     0.001 A 
ATOM     48  C45 ZIN AC000       9.693   4.851   3.631  0.00  0.00     0.001 A 
BRANCH  41  49
ATOM     49  O51 ZIN AC000      10.493   6.526  -1.294  0.00  0.00    -0.393 OA
ATOM     50  H93 ZIN AC000      11.327   6.980  -1.479  0.00  0.00     0.210 HD
ENDBRANCH  41  49
ENDBRANCH  38  40
ENDBRANCH  28  36
ENDBRANCH  27  28
ENDBRANCH   1  27
TORSDOF 14
