REMARK  6 active torsions:
REMARK  status: ('A' for Active; 'I' for Inactive)
REMARK    1  A    between atoms: C2_2  and  N3_3 
REMARK    2  A    between atoms: N3_3  and  C4_4 
REMARK       I    between atoms: N3_3  and  C6_6 
REMARK    3  A    between atoms: C6_6  and  C8_8 
REMARK    4  A    between atoms: C8_8  and  C9_9 
REMARK    5  A    between atoms: C16_16  and  C18_17 
REMARK    6  A    between atoms: C18_17  and  N19_18 
ROOT
ATOM      1  C8  ZIN AC000       0.750  -0.997  -4.032  0.00  0.00     0.074 A 
ATOM      2  C15 ZIN AC000       0.685   0.074  -5.123  0.00  0.00     0.032 A 
ATOM      3  C16 ZIN AC000      -0.219  -1.157  -5.206  0.00  0.00     0.035 A 
ENDROOT
BRANCH   1   4
ATOM      4  C6  ZIN AC000       0.163  -0.656  -2.687  0.00  0.00     0.233 C 
ATOM      5  N3  ZIN AC000      -0.278  -1.639  -1.876  0.00  0.00    -0.352 N 
ATOM      6  O7  ZIN AC000       0.087   0.501  -2.334  0.00  0.00    -0.272 OA
BRANCH   5   7
ATOM      7  C2  ZIN AC000      -0.948  -1.304  -0.617  0.00  0.00     0.121 C 
ATOM      8  C1  ZIN AC000       0.091  -1.196   0.501  0.00  0.00     0.026 C 
ENDBRANCH   5   7
BRANCH   5   9
ATOM      9  C4  ZIN AC000      -0.086  -3.041  -2.253  0.00  0.00     0.121 C 
ATOM     10  C5  ZIN AC000      -1.357  -3.567  -2.925  0.00  0.00     0.026 C 
ENDBRANCH   5   9
ENDBRANCH   1   4
BRANCH   1  11
ATOM     11  C9  ZIN AC000       1.963  -1.890  -4.005  0.00  0.00    -0.040 A 
ATOM     12  C14 ZIN AC000       2.827  -1.850  -2.926  0.00  0.00     0.008 A 
ATOM     13  C13 ZIN AC000       3.938  -2.672  -2.899  0.00  0.00     0.001 A 
ATOM     14  C12 ZIN AC000       4.189  -3.529  -3.955  0.00  0.00     0.000 A 
ATOM     15  C11 ZIN AC000       3.328  -3.566  -5.035  0.00  0.00     0.001 A 
ATOM     16  C10 ZIN AC000       2.215  -2.746  -5.061  0.00  0.00     0.008 A 
ENDBRANCH   1  11
BRANCH   3  17
ATOM     17  C18 ZIN AC000      -1.710  -0.959  -4.924  0.00  0.00     0.235 C 
BRANCH  17  18
ATOM     18  N19 ZIN AC000      -2.492  -1.428  -6.075  0.00  0.00    -0.079 N 
ATOM     19  H20 ZIN AC000      -2.307  -2.408  -6.231  0.00  0.00     0.274 HD
ATOM     20  H21 ZIN AC000      -3.475  -1.298  -5.889  0.00  0.00     0.274 HD
ATOM     21  H22 ZIN AC000      -2.232  -0.902  -6.896  0.00  0.00     0.274 HD
ENDBRANCH  17  18
ENDBRANCH   3  17
TORSDOF 6
