REMARK  13 active torsions:
REMARK  status: ('A' for Active; 'I' for Inactive)
REMARK    1  A    between atoms: N2_2  and  C5_5 
REMARK    2  A    between atoms: C5_5  and  C8_7 
REMARK    3  A    between atoms: C12_10  and  N14_11 
REMARK    4  A    between atoms: C18_15  and  O20_16 
REMARK    5  A    between atoms: O20_16  and  C21_17 
REMARK    6  A    between atoms: C23_18  and  N25_19 
REMARK    7  A    between atoms: C30_24  and  N32_25 
REMARK    8  A    between atoms: C36_29  and  O38_30 
REMARK    9  A    between atoms: O38_30  and  C39_31 
REMARK   10  A    between atoms: C43_34  and  O45_36 
REMARK   11  A    between atoms: C46_37  and  N48_38 
REMARK   12  A    between atoms: C52_42  and  O54_43 
REMARK   13  A    between atoms: C55_44  and  O57_45 
ROOT
ATOM      1  C21 ZIN AC000      -3.251  -4.427  -1.335  0.00  0.00     0.186 C 
ATOM      2  C23 ZIN AC000      -4.255  -5.120  -2.259  0.00  0.00     0.217 C 
ATOM      3  C29 ZIN AC000      -4.525  -4.233  -3.475  0.00  0.00     0.071 C 
ATOM      4  C30 ZIN AC000      -5.099  -2.892  -3.012  0.00  0.00     0.217 C 
ATOM      5  C36 ZIN AC000      -4.095  -2.200  -2.088  0.00  0.00     0.186 C 
ATOM      6  C55 ZIN AC000      -3.825  -3.087  -0.871  0.00  0.00     0.180 C 
ENDROOT
BRANCH   1   7
ATOM      7  O20 ZIN AC000      -2.029  -4.203  -2.042  0.00  0.00    -0.349 OA
BRANCH   7   8
ATOM      8  C18 ZIN AC000      -1.124  -5.308  -2.002  0.00  0.00     0.291 C 
ATOM      9  C12 ZIN AC000       0.259  -4.853  -2.477  0.00  0.00     0.238 C 
ATOM     10  C11 ZIN AC000       1.237  -6.027  -2.375  0.00  0.00     0.040 C 
ATOM     11  C10 ZIN AC000       1.257  -6.537  -0.931  0.00  0.00     0.036 C 
ATOM     12  C8  ZIN AC000      -0.164  -6.928  -0.516  0.00  0.00     0.155 C 
ATOM     13  O58 ZIN AC000      -1.029  -5.800  -0.664  0.00  0.00    -0.352 OA
BRANCH   9  14
ATOM     14  N14 ZIN AC000       0.729  -3.747  -1.632  0.00  0.00    -0.070 N 
ATOM     15  H15 ZIN AC000       1.538  -3.320  -2.057  0.00  0.00     0.274 HD
ATOM     16  H16 ZIN AC000      -0.004  -3.060  -1.538  0.00  0.00     0.274 HD
ATOM     17  H17 ZIN AC000       0.976  -4.102  -0.720  0.00  0.00     0.274 HD
ENDBRANCH   9  14
BRANCH  12  18
ATOM     18  C5  ZIN AC000      -0.163  -7.382   0.945  0.00  0.00     0.210 C 
ATOM     19  C7  ZIN AC000       0.261  -6.217   1.841  0.00  0.00     0.042 C 
BRANCH  18  20
ATOM     20  N2  ZIN AC000      -1.513  -7.824   1.321  0.00  0.00    -0.073 N 
ATOM     21  C1  ZIN AC000      -1.486  -8.371   2.684  0.00  0.00     0.267 C 
ATOM     22  H3  ZIN AC000      -1.825  -8.536   0.679  0.00  0.00     0.277 HD
ATOM     23  H4  ZIN AC000      -2.145  -7.038   1.286  0.00  0.00     0.277 HD
ENDBRANCH  18  20
ENDBRANCH  12  18
ENDBRANCH   7   8
ENDBRANCH   1   7
BRANCH   6  24
ATOM     24  O57 ZIN AC000      -5.046  -3.311  -0.165  0.00  0.00    -0.390 OA
ATOM     25  H81 ZIN AC000      -5.467  -2.503   0.159  0.00  0.00     0.210 HD
ENDBRANCH   6  24
BRANCH   2  26
ATOM     26  N25 ZIN AC000      -3.704  -6.407  -2.704  0.00  0.00    -0.072 N 
ATOM     27  H26 ZIN AC000      -3.281  -6.881  -1.919  0.00  0.00     0.274 HD
ATOM     28  H27 ZIN AC000      -4.445  -6.977  -3.083  0.00  0.00     0.274 HD
ATOM     29  H28 ZIN AC000      -3.006  -6.246  -3.415  0.00  0.00     0.274 HD
ENDBRANCH   2  26
BRANCH   5  30
ATOM     30  O38 ZIN AC000      -2.873  -1.976  -2.795  0.00  0.00    -0.349 OA
BRANCH  30  31
ATOM     31  C39 ZIN AC000      -2.479  -0.603  -2.854  0.00  0.00     0.291 C 
ATOM     32  C52 ZIN AC000      -1.141  -0.488  -3.590  0.00  0.00     0.207 C 
ATOM     33  C46 ZIN AC000      -0.756   0.991  -3.702  0.00  0.00     0.254 C 
ATOM     34  C43 ZIN AC000      -1.880   1.747  -4.417  0.00  0.00     0.106 C 
ATOM     35  C42 ZIN AC000      -3.189   1.545  -3.649  0.00  0.00     0.210 C 
ATOM     36  C44 ZIN AC000      -1.541   3.239  -4.466  0.00  0.00     0.050 C 
ATOM     37  O41 ZIN AC000      -3.473   0.148  -3.554  0.00  0.00    -0.356 OA
BRANCH  32  38
ATOM     38  O54 ZIN AC000      -0.132  -1.190  -2.862  0.00  0.00    -0.388 OA
ATOM     39  H80 ZIN AC000      -0.256  -2.149  -2.843  0.00  0.00     0.210 HD
ENDBRANCH  32  38
BRANCH  33  40
ATOM     40  N48 ZIN AC000       0.489   1.118  -4.472  0.00  0.00    -0.069 N 
ATOM     41  H49 ZIN AC000       0.391   0.635  -5.352  0.00  0.00     0.277 HD
ATOM     42  H50 ZIN AC000       0.680   2.094  -4.643  0.00  0.00     0.277 HD
ATOM     43  C51 ZIN AC000       1.598   0.528  -3.710  0.00  0.00     0.267 C 
ENDBRANCH  33  40
BRANCH  34  44
ATOM     44  O45 ZIN AC000      -2.024   1.246  -5.747  0.00  0.00    -0.386 OA
ATOM     45  H76 ZIN AC000      -2.723   1.678  -6.257  0.00  0.00     0.210 HD
ENDBRANCH  34  44
ENDBRANCH  30  31
ENDBRANCH   5  30
BRANCH   4  46
ATOM     46  N32 ZIN AC000      -5.358  -2.040  -4.180  0.00  0.00    -0.072 N 
ATOM     47  H33 ZIN AC000      -6.020  -2.497  -4.789  0.00  0.00     0.274 HD
ATOM     48  H34 ZIN AC000      -5.737  -1.156  -3.874  0.00  0.00     0.274 HD
ATOM     49  H35 ZIN AC000      -4.495  -1.882  -4.679  0.00  0.00     0.274 HD
ENDBRANCH   4  46
TORSDOF 13
