REMARK  6 active torsions:
REMARK  status: ('A' for Active; 'I' for Inactive)
REMARK    1  A    between atoms: C2_2  and  O4_3 
REMARK    2  A    between atoms: C2_2  and  C5_4 
REMARK    3  A    between atoms: C10_8  and  C11_9 
REMARK    4  A    between atoms: C14_12  and  S15_13 
REMARK    5  A    between atoms: S15_13  and  C16_14 
REMARK    6  A    between atoms: C22_19  and  C24_20 
REMARK       I    between atoms: C24_20  and  N26_22 
ROOT
ATOM      1  C5  <0> d          -1.391  -0.348   1.350  0.00  0.00     0.120 A 
ATOM      2  C7  <0> d          -1.416  -0.231  -0.160  0.00  0.00     0.213 A 
ATOM      3  O8  <0> d          -1.321   0.696  -0.937  0.00  0.00    -0.279 OA
ATOM      4  N9  <0> d          -1.585  -1.575  -0.304  0.00  0.00    -0.206 NA
ATOM      5  C10 <0> d          -2.817  -2.041  -0.793  0.00  0.00     0.108 A 
ATOM      6  C14 <0> d          -3.611  -2.541   0.178  0.00  0.00     0.013 A 
ATOM      7  C30 <0> d          -2.881  -2.449   1.498  0.00  0.00     0.043 A 
ATOM      8  C32 <0> d          -3.627  -1.519   2.457  0.00  0.00     0.017 C 
ATOM      9  C33 <0> d          -1.507  -1.865   1.145  0.00  0.00     0.095 A 
ENDROOT
BRANCH   6  10
ATOM     10  S15 <0> d          -5.231  -3.193  -0.055  0.00  0.00    -0.125 SA
BRANCH  10  11
ATOM     11  C16 <0> d          -4.940  -4.923   0.389  0.00  0.00     0.080 C 
ATOM     12  C29 <0> d          -6.278  -5.700   0.502  0.00  0.00     0.060 C 
ATOM     13  C22 <0> d          -5.862  -7.155   0.199  0.00  0.00     0.278 C 
ATOM     14  N19 <0> d          -4.600  -7.099  -0.562  0.00  0.00    -0.061 N 
ATOM     15  C18 <0> d          -4.234  -5.681  -0.763  0.00  0.00     0.248 C 
ATOM     16  H20 <0> d          -4.724  -7.548  -1.458  0.00  0.00     0.278 HD
ATOM     17  H21 <0> d          -3.872  -7.568  -0.044  0.00  0.00     0.278 HD
BRANCH  13  18
ATOM     18  C24 <0> d          -6.926  -7.837  -0.622  0.00  0.00     0.250 C 
ATOM     19  O25 <0> d          -6.793  -7.938  -1.823  0.00  0.00    -0.271 OA
ATOM     20  N26 <0> d          -8.025  -8.333  -0.021  0.00  0.00    -0.359 N 
ATOM     21  C27 <0> d          -9.060  -8.996  -0.819  0.00  0.00     0.152 C 
ATOM     22  C28 <0> d          -8.186  -8.210   1.430  0.00  0.00     0.152 C 
ENDBRANCH  13  18
ENDBRANCH  10  11
ENDBRANCH   6  10
BRANCH   5  23
ATOM     23  C11 <0> d          -3.186  -1.992  -2.153  0.00  0.00     0.222 C 
ATOM     24  O12 <0> d          -4.329  -2.547  -2.554  0.00  0.00    -0.643 OA
ATOM     25  O13 <0> d          -2.391  -1.391  -3.038  0.00  0.00    -0.643 OA
ENDBRANCH   5  23
BRANCH   1  26
ATOM     26  C2  <0> d          -0.066   0.087   1.979  0.00  0.00     0.128 C 
ATOM     27  C1  <0> d          -0.035   1.612   2.098  0.00  0.00     0.040 C 
BRANCH  26  28
ATOM     28  O4  <0> d           0.059  -0.495   3.278  0.00  0.00    -0.395 OA
ATOM     29  H38 <0> d          -0.645  -0.242   3.891  0.00  0.00     0.210 HD
ENDBRANCH  26  28
ENDBRANCH   1  26
TORSDOF 6
