REMARK  6 active torsions:
REMARK  status: ('A' for Active; 'I' for Inactive)
REMARK    1  A    between atoms: N1_1  and  C5_5 
REMARK    2  A    between atoms: C5_5  and  C7_6 
REMARK    3  A    between atoms: C5_5  and  C25_24 
REMARK    4  A    between atoms: C7_6  and  C8_7 
REMARK    5  A    between atoms: C12_11  and  O13_12 
REMARK    6  A    between atoms: O13_12  and  C14_13 
ROOT
ATOM      1  C8  ZIN AC000      -2.899   1.546   0.074  0.00  0.00    -0.053 A 
ATOM      2  C9  ZIN AC000      -3.577   2.739   0.239  0.00  0.00     0.028 A 
ATOM      3  C10 ZIN AC000      -4.279   3.289  -0.817  0.00  0.00     0.042 A 
ATOM      4  I11 ZIN AC000      -5.307   5.097  -0.565  0.00  0.00    -0.042 I 
ATOM      5  C12 ZIN AC000      -4.302   2.642  -2.045  0.00  0.00     0.109 A 
ATOM      6  C22 ZIN AC000      -3.620   1.445  -2.208  0.00  0.00     0.042 A 
ATOM      7  I23 ZIN AC000      -3.651   0.465  -4.059  0.00  0.00    -0.042 I 
ATOM      8  C24 ZIN AC000      -2.916   0.902  -1.150  0.00  0.00     0.028 A 
ENDROOT
BRANCH   1   9
ATOM      9  C7  ZIN AC000      -2.135   0.949   1.227  0.00  0.00     0.082 C 
BRANCH   9  10
ATOM     10  C5  ZIN AC000      -0.699   1.479   1.216  0.00  0.00     0.287 C 
BRANCH  10  11
ATOM     11  N1  ZIN AC000      -0.012   1.005   0.008  0.00  0.00    -0.065 N 
ATOM     12  H2  ZIN AC000       0.002  -0.004   0.002  0.00  0.00     0.275 HD
ATOM     13  H3  ZIN AC000       0.935   1.354   0.000  0.00  0.00     0.275 HD
ATOM     14  H4  ZIN AC000      -0.500   1.339  -0.810  0.00  0.00     0.275 HD
ENDBRANCH  10  11
BRANCH  10  15
ATOM     15  C25 ZIN AC000       0.030   0.979   2.437  0.00  0.00     0.204 C 
ATOM     16  O26 ZIN AC000      -0.266   1.406   3.540  0.00  0.00    -0.646 OA
ATOM     17  O27 ZIN AC000       0.915   0.149   2.322  0.00  0.00    -0.646 OA
ENDBRANCH  10  15
ENDBRANCH   9  10
ENDBRANCH   1   9
BRANCH   5  18
ATOM     18  O13 ZIN AC000      -4.991   3.181  -3.085  0.00  0.00    -0.308 OA
BRANCH  18  19
ATOM     19  C14 ZIN AC000      -4.334   4.038  -3.910  0.00  0.00     0.077 A 
ATOM     20  C21 ZIN AC000      -4.997   4.612  -4.985  0.00  0.00     0.058 A 
ATOM     21  C19 ZIN AC000      -4.330   5.487  -5.821  0.00  0.00     0.045 A 
ATOM     22  C17 ZIN AC000      -2.994   5.784  -5.591  0.00  0.00     0.123 A 
ATOM     23  I20 ZIN AC000      -5.334   6.359  -7.440  0.00  0.00    -0.042 I 
ATOM     24  C16 ZIN AC000      -2.330   5.206  -4.520  0.00  0.00     0.044 A 
ATOM     25  O18 ZIN AC000      -2.337   6.641  -6.416  0.00  0.00    -0.191 OA
ATOM     26  C15 ZIN AC000      -2.998   4.335  -3.681  0.00  0.00     0.040 A 
ENDBRANCH  18  19
ENDBRANCH   5  18
TORSDOF 6
