REMARK  3 active torsions:
REMARK  status: ('A' for Active; 'I' for Inactive)
REMARK    1  A    between atoms: C2_2  and  C4_4 
REMARK    2  A    between atoms: C9_8  and  C10_9 
REMARK    3  A    between atoms: C10_9  and  C12_11 
ROOT
ATOM      1  C4  <0> d          -1.676   2.334  -0.464  0.00  0.00     0.138 C 
ATOM      2  C6  <0> d          -2.795   1.526   0.230  0.00  0.00     0.042 C 
ATOM      3  C7  <0> d          -3.481   2.609   1.090  0.00  0.00     0.130 C 
ATOM      4  N8  <0> d          -2.447   3.626   1.344  0.00  0.00    -0.346 N 
ATOM      5  C9  <0> d          -2.177   4.688   2.188  0.00  0.00     0.086 A 
ATOM      6  C18 <0> d          -0.956   5.214   1.818  0.00  0.00     0.036 A 
ATOM      7  C19 <0> d          -0.491   4.456   0.742  0.00  0.00     0.028 A 
ATOM      8  C20 <0> d          -1.415   3.498   0.473  0.00  0.00     0.026 A 
ENDROOT
BRANCH   5   9
ATOM      9  C10 <0> d          -3.031   5.167   3.276  0.00  0.00     0.208 C 
ATOM     10  O11 <0> d          -4.031   4.544   3.585  0.00  0.00    -0.285 OA
BRANCH   9  11
ATOM     11  C12 <0> d          -2.680   6.407   4.001  0.00  0.00     0.016 A 
ATOM     12  C17 <0> d          -3.061   6.572   5.334  0.00  0.00     0.015 A 
ATOM     13  C16 <0> d          -2.725   7.729   6.006  0.00  0.00     0.001 A 
ATOM     14  C15 <0> d          -2.023   8.730   5.358  0.00  0.00     0.000 A 
ATOM     15  C14 <0> d          -1.647   8.575   4.035  0.00  0.00     0.001 A 
ATOM     16  C13 <0> d          -1.971   7.420   3.353  0.00  0.00     0.015 A 
ENDBRANCH   9  11
ENDBRANCH   5   9
BRANCH   1  17
ATOM     17  C2  <0> d          -0.435   1.493  -0.617  0.00  0.00     0.183 C 
ATOM     18  O1  <0> d          -0.532   0.292  -0.804  0.00  0.00    -0.647 OA
ATOM     19  O3  <0> d           0.666   2.014  -0.558  0.00  0.00    -0.647 OA
ENDBRANCH   1  17
TORSDOF 3
