REMARK  9 active torsions:
REMARK  status: ('A' for Active; 'I' for Inactive)
REMARK    1  A    between atoms: C2_2  and  C3_3 
REMARK    2  A    between atoms: C2_2  and  C20_20 
REMARK    3  A    between atoms: C4_4  and  C5_5 
REMARK    4  A    between atoms: C8_8  and  O9_9 
REMARK    5  A    between atoms: C15_15  and  O16_16 
REMARK    6  A    between atoms: C23_23  and  O24_24 
REMARK    7  A    between atoms: O24_24  and  C25_25 
REMARK    8  A    between atoms: C25_25  and  C26_26 
REMARK    9  A    between atoms: C26_26  and  N27_27 
ROOT
ATOM      1  C3  <0> d           1.145   0.435  -0.468  0.00  0.00     0.044 A 
ATOM      2  C4  <0> d           1.804   0.817   0.668  0.00  0.00     0.031 A 
ATOM      3  S12 <0> d           3.372   1.496   0.285  0.00  0.00    -0.088 SA
ATOM      4  C13 <0> d           3.141   1.264  -1.444  0.00  0.00     0.019 A 
ATOM      5  C14 <0> d           3.994   1.570  -2.509  0.00  0.00     0.056 A 
ATOM      6  C15 <0> d           3.613   1.301  -3.808  0.00  0.00     0.067 A 
ATOM      7  C17 <0> d           2.374   0.723  -4.064  0.00  0.00     0.037 A 
ATOM      8  C18 <0> d           1.526   0.417  -3.030  0.00  0.00     0.016 A 
ATOM      9  C19 <0> d           1.902   0.679  -1.697  0.00  0.00    -0.003 A 
ENDROOT
BRANCH   1  10
ATOM     10  C2  <0> d          -0.189  -0.166  -0.456  0.00  0.00     0.194 C 
ATOM     11  O1  <0> d          -0.311  -1.377  -0.479  0.00  0.00    -0.287 OA
BRANCH  10  12
ATOM     12  C20 <0> d          -1.387   0.697  -0.422  0.00  0.00     0.015 A 
ATOM     13  C34 <0> d          -2.657   0.127  -0.304  0.00  0.00     0.018 A 
ATOM     14  C33 <0> d          -3.772   0.934  -0.267  0.00  0.00     0.037 A 
ATOM     15  C23 <0> d          -3.635   2.315  -0.357  0.00  0.00     0.068 A 
ATOM     16  C22 <0> d          -2.374   2.885  -0.481  0.00  0.00     0.037 A 
ATOM     17  C21 <0> d          -1.254   2.085  -0.513  0.00  0.00     0.018 A 
BRANCH  15  18
ATOM     18  O24 <0> d          -4.737   3.107  -0.326  0.00  0.00    -0.349 OA
BRANCH  18  19
ATOM     19  C25 <0> d          -6.002   2.455  -0.198  0.00  0.00     0.206 C 
BRANCH  19  20
ATOM     20  C26 <0> d          -7.117   3.503  -0.180  0.00  0.00     0.299 C 
BRANCH  20  21
ATOM     21  N27 <0> d          -7.165   4.188  -1.479  0.00  0.00     0.090 N 
ATOM     22  C32 <0> d          -6.067   5.154  -1.607  0.00  0.00     0.272 C 
ATOM     23  C31 <0> d          -6.233   5.949  -2.904  0.00  0.00     0.030 C 
ATOM     24  C30 <0> d          -6.228   4.983  -4.092  0.00  0.00     0.003 C 
ATOM     25  C29 <0> d          -7.351   3.958  -3.911  0.00  0.00     0.030 C 
ATOM     26  C28 <0> d          -7.153   3.221  -2.584  0.00  0.00     0.272 C 
ENDBRANCH  20  21
ENDBRANCH  19  20
ENDBRANCH  18  19
ENDBRANCH  15  18
ENDBRANCH  10  12
ENDBRANCH   1  10
BRANCH   2  27
ATOM     27  C5  <0> d           1.266   0.674   2.034  0.00  0.00    -0.018 A 
ATOM     28  C11 <0> d           1.344   1.742   2.933  0.00  0.00     0.015 A 
ATOM     29  C10 <0> d           0.835   1.606   4.206  0.00  0.00     0.037 A 
ATOM     30  C8  <0> d           0.255   0.407   4.600  0.00  0.00     0.065 A 
ATOM     31  C7  <0> d           0.181  -0.659   3.712  0.00  0.00     0.037 A 
ATOM     32  C6  <0> d           0.682  -0.531   2.435  0.00  0.00     0.015 A 
BRANCH  30  33
ATOM     33  O9  <0> d          -0.241   0.276   5.857  0.00  0.00    -0.361 OA
ATOM     34  H37 <0> d           0.402  -0.050   6.502  0.00  0.00     0.217 HD
ENDBRANCH  30  33
ENDBRANCH   2  27
BRANCH   6  35
ATOM     35  O16 <0> d           4.449   1.602  -4.837  0.00  0.00    -0.361 OA
ATOM     36  H41 <0> d           5.053   0.885  -5.075  0.00  0.00     0.217 HD
ENDBRANCH   6  35
TORSDOF 9
