REMARK  5 active torsions:
REMARK  status: ('A' for Active; 'I' for Inactive)
REMARK    1  A    between atoms: C2_2  and  C3_3 
REMARK    2  A    between atoms: C4_4  and  C5_5 
REMARK    3  A    between atoms: C14_14  and  C15_15 
REMARK    4  A    between atoms: C16_16  and  C17_17 
REMARK    5  A    between atoms: C19_19  and  C20_20 
ROOT
ATOM      1  C1  ZIN AC000       0.754   1.522  -1.490  0.00  0.00     0.048 C 
ATOM      2  C2  ZIN AC000       0.973   0.046  -1.281  0.00  0.00    -0.062 C 
ATOM      3  C14 ZIN AC000       1.078  -0.787  -2.357  0.00  0.00     0.007 C 
ENDROOT
BRANCH   2   4
ATOM      4  C3  ZIN AC000       1.068  -0.473   0.022  0.00  0.00     0.007 C 
ATOM      5  C4  ZIN AC000       0.964   0.356   1.093  0.00  0.00     0.009 C 
BRANCH   5   6
ATOM      6  C5  ZIN AC000       0.934  -0.180   2.405  0.00  0.00    -0.048 C 
ATOM      7  C11 ZIN AC000       1.976   0.281   3.383  0.00  0.00    -0.020 C 
ATOM      8  C10 ZIN AC000       1.539  -0.054   4.812  0.00  0.00     0.014 C 
ATOM      9  C12 ZIN AC000       3.307  -0.412   3.083  0.00  0.00     0.020 C 
ATOM     10  C13 ZIN AC000       2.154   1.794   3.248  0.00  0.00     0.020 C 
ATOM     11  C9  ZIN AC000       1.127  -1.531   4.859  0.00  0.00     0.005 C 
ATOM     12  C8  ZIN AC000      -0.158  -1.703   4.047  0.00  0.00     0.034 C 
ATOM     13  C6  ZIN AC000      -0.006  -1.063   2.697  0.00  0.00    -0.077 C 
ATOM     14  C7  ZIN AC000      -0.980  -1.449   1.614  0.00  0.00     0.044 C 
ENDBRANCH   5   6
ENDBRANCH   2   4
BRANCH   3  15
ATOM     15  C15 ZIN AC000       1.281  -2.161  -2.163  0.00  0.00     0.001 C 
ATOM     16  C16 ZIN AC000       1.491  -2.985  -3.245  0.00  0.00     0.007 C 
BRANCH  16  17
ATOM     17  C17 ZIN AC000       1.624  -2.437  -4.527  0.00  0.00    -0.056 C 
ATOM     18  C18 ZIN AC000       2.808  -1.565  -4.856  0.00  0.00     0.048 C 
ATOM     19  C19 ZIN AC000       0.672  -2.696  -5.488  0.00  0.00     0.091 C 
BRANCH  19  20
ATOM     20  C20 ZIN AC000      -0.493  -3.403  -5.150  0.00  0.00     0.199 C 
ATOM     21  O21 ZIN AC000      -0.729  -3.730  -3.878  0.00  0.00    -0.644 OA
ATOM     22  O22 ZIN AC000      -1.364  -3.747  -6.099  0.00  0.00    -0.644 OA
ENDBRANCH  19  20
ENDBRANCH  16  17
ENDBRANCH   3  15
TORSDOF 5
