REMARK  4 active torsions:
REMARK  status: ('A' for Active; 'I' for Inactive)
REMARK       I    between atoms: N9_9  and  C10_10 
REMARK    1  A    between atoms: C10_10  and  C12_12 
REMARK    2  A    between atoms: C15_15  and  N16_16 
REMARK       I    between atoms: N16_16  and  C17_17 
REMARK    3  A    between atoms: C17_17  and  C19_19 
REMARK    4  A    between atoms: C24_24  and  C25_25 
ROOT
ATOM      1  C12 ZIN AC000      -2.777  -4.878  -1.931  0.00  0.00     0.032 A 
ATOM      2  C13 ZIN AC000      -2.146  -5.229  -3.127  0.00  0.00     0.019 A 
ATOM      3  C14 ZIN AC000      -2.814  -5.087  -4.323  0.00  0.00     0.030 A 
ATOM      4  C15 ZIN AC000      -4.114  -4.593  -4.341  0.00  0.00     0.035 A 
ATOM      5  C31 ZIN AC000      -4.745  -4.242  -3.151  0.00  0.00     0.030 A 
ATOM      6  C32 ZIN AC000      -4.086  -4.387  -1.952  0.00  0.00     0.019 A 
ENDROOT
BRANCH   1   7
ATOM      7  C10 ZIN AC000      -2.065  -5.029  -0.647  0.00  0.00     0.258 C 
ATOM      8  N9  ZIN AC000      -2.143  -4.059   0.286  0.00  0.00    -0.313 N 
ATOM      9  C8  ZIN AC000      -1.520  -4.287   1.594  0.00  0.00     0.138 C 
ATOM     10  C33 ZIN AC000      -2.814  -2.879  -0.030  0.00  0.00     0.050 A 
ATOM     11  C7  ZIN AC000      -2.466  -3.825   2.709  0.00  0.00     0.080 C 
ATOM     12  C6  ZIN AC000      -3.873  -4.260   2.406  0.00  0.00     0.040 A 
ATOM     13  C5  ZIN AC000      -4.633  -3.729   1.402  0.00  0.00     0.069 A 
ATOM     14  N39 ZIN AC000      -4.640  -5.194   3.025  0.00  0.00    -0.348 N 
ATOM     15  N3  ZIN AC000      -5.829  -4.326   1.432  0.00  0.00    -0.344 N 
ATOM     16  C38 ZIN AC000      -4.107  -2.688   0.488  0.00  0.00     0.020 A 
ATOM     17  C2  ZIN AC000      -5.841  -5.208   2.398  0.00  0.00     0.077 A 
ATOM     18  H4  ZIN AC000      -6.569  -4.136   0.834  0.00  0.00     0.167 HD
ATOM     19  C1  ZIN AC000      -7.005  -6.093   2.760  0.00  0.00     0.089 C 
ATOM     20  C37 ZIN AC000      -4.828  -1.552   0.163  0.00  0.00     0.016 A 
ATOM     21  C36 ZIN AC000      -4.260  -0.598  -0.662  0.00  0.00     0.001 A 
ATOM     22  C35 ZIN AC000      -2.978  -0.772  -1.151  0.00  0.00     0.002 A 
ATOM     23  C34 ZIN AC000      -2.253  -1.908  -0.838  0.00  0.00     0.031 A 
ATOM     24  H65 ZIN AC000      -4.375  -5.752   3.773  0.00  0.00     0.167 HD
ATOM     25  O11 ZIN AC000      -1.407  -6.029  -0.431  0.00  0.00    -0.267 OA
ENDBRANCH   1   7
BRANCH   4  26
ATOM     26  N16 ZIN AC000      -4.787  -4.451  -5.553  0.00  0.00    -0.323 N 
ATOM     27  C17 ZIN AC000      -4.102  -4.145  -6.672  0.00  0.00     0.257 C 
ATOM     28  O18 ZIN AC000      -2.912  -3.900  -6.609  0.00  0.00    -0.267 OA
ATOM     29  H49 ZIN AC000      -5.749  -4.572  -5.591  0.00  0.00     0.169 HD
BRANCH  27  30
ATOM     30  C19 ZIN AC000      -4.794  -4.107  -7.975  0.00  0.00     0.043 A 
ATOM     31  C24 ZIN AC000      -4.331  -3.262  -8.999  0.00  0.00    -0.010 A 
ATOM     32  C23 ZIN AC000      -4.990  -3.242 -10.225  0.00  0.00     0.013 A 
ATOM     33  C22 ZIN AC000      -6.099  -4.039 -10.426  0.00  0.00     0.001 A 
ATOM     34  C21 ZIN AC000      -6.560  -4.867  -9.416  0.00  0.00     0.001 A 
ATOM     35  C20 ZIN AC000      -5.917  -4.906  -8.196  0.00  0.00     0.018 A 
BRANCH  31  36
ATOM     36  C25 ZIN AC000      -3.140  -2.408  -8.779  0.00  0.00    -0.025 A 
ATOM     37  C30 ZIN AC000      -2.042  -2.505  -9.633  0.00  0.00     0.012 A 
ATOM     38  C29 ZIN AC000      -0.938  -1.703  -9.426  0.00  0.00     0.001 A 
ATOM     39  C28 ZIN AC000      -0.915  -0.813  -8.367  0.00  0.00     0.000 A 
ATOM     40  C27 ZIN AC000      -1.999  -0.716  -7.513  0.00  0.00     0.001 A 
ATOM     41  C26 ZIN AC000      -3.111  -1.509  -7.714  0.00  0.00     0.012 A 
ENDBRANCH  31  36
ENDBRANCH  27  30
ENDBRANCH   4  26
TORSDOF 4
