REMARK  7 active torsions:
REMARK  status: ('A' for Active; 'I' for Inactive)
REMARK    1  A    between atoms: S2_2  and  C5_5 
REMARK    2  A    between atoms: C9_9  and  C10_10 
REMARK    3  A    between atoms: C10_10  and  C11_11 
REMARK    4  A    between atoms: C11_11  and  N13_12 
REMARK    5  A    between atoms: C11_11  and  C39_38 
REMARK       I    between atoms: N13_12  and  C14_13 
REMARK    6  A    between atoms: C14_13  and  C16_15 
REMARK       I    between atoms: N22_21  and  C23_22 
REMARK    7  A    between atoms: C23_22  and  C25_24 
ROOT
ATOM      1  C16 ZIN AC000       4.989   3.182  -5.721  0.00  0.00     0.075 A 
ATOM      2  C17 ZIN AC000       3.645   3.493  -5.949  0.00  0.00     0.052 A 
ATOM      3 Cl18 ZIN AC000       2.534   3.596  -4.619  0.00  0.00    -0.083 Cl
ATOM      4  C19 ZIN AC000       3.209   3.716  -7.237  0.00  0.00     0.034 A 
ATOM      5  C20 ZIN AC000       4.088   3.635  -8.309  0.00  0.00    -0.030 A 
ATOM      6  C21 ZIN AC000       3.530   3.866  -9.691  0.00  0.00     0.165 C 
ATOM      7  N22 ZIN AC000       4.629   3.997 -10.654  0.00  0.00    -0.343 N 
ATOM      8  C23 ZIN AC000       4.626   4.964 -11.593  0.00  0.00     0.254 C 
ATOM      9  O24 ZIN AC000       5.597   5.120 -12.308  0.00  0.00    -0.267 OA
ATOM     10  C34 ZIN AC000       5.736   3.032 -10.552  0.00  0.00     0.131 C 
ATOM     11  C35 ZIN AC000       6.427   3.251  -9.207  0.00  0.00     0.061 C 
ATOM     12  C36 ZIN AC000       5.417   3.338  -8.093  0.00  0.00    -0.026 A 
ATOM     13  C37 ZIN AC000       5.869   3.113  -6.800  0.00  0.00     0.058 A 
ATOM     14 Cl38 ZIN AC000       7.541   2.736  -6.524  0.00  0.00    -0.083 Cl
ENDROOT
BRANCH   1  15
ATOM     15  C14 ZIN AC000       5.473   2.936  -4.347  0.00  0.00     0.255 C 
ATOM     16  N13 ZIN AC000       5.457   1.687  -3.841  0.00  0.00    -0.342 N 
ATOM     17  H51 ZIN AC000       5.127   0.950  -4.379  0.00  0.00     0.163 HD
ATOM     18  O15 ZIN AC000       5.886   3.859  -3.673  0.00  0.00    -0.268 OA
BRANCH  16  19
ATOM     19  C11 ZIN AC000       5.937   1.442  -2.479  0.00  0.00     0.190 C 
BRANCH  19  20
ATOM     20  C10 ZIN AC000       5.277   0.178  -1.925  0.00  0.00     0.074 C 
BRANCH  20  21
ATOM     21  C9  ZIN AC000       3.793   0.405  -1.790  0.00  0.00    -0.054 A 
ATOM     22  C8  ZIN AC000       2.949   0.105  -2.843  0.00  0.00     0.007 A 
ATOM     23  C7  ZIN AC000       1.588   0.312  -2.719  0.00  0.00     0.002 A 
ATOM     24  C6  ZIN AC000       1.071   0.819  -1.542  0.00  0.00     0.023 A 
ATOM     25  C5  ZIN AC000       1.914   1.118  -0.488  0.00  0.00     0.059 A 
ATOM     26  C42 ZIN AC000       3.276   0.915  -0.614  0.00  0.00     0.030 A 
BRANCH  25  27
ATOM     27  S2  ZIN AC000       1.255   1.764   1.013  0.00  0.00     0.171 S 
ATOM     28  C1  ZIN AC000       1.271   3.563   0.777  0.00  0.00     0.167 C 
ATOM     29  O3  ZIN AC000       2.199   1.383   2.003  0.00  0.00    -0.223 OA
ATOM     30  O4  ZIN AC000      -0.080   1.278   1.047  0.00  0.00    -0.223 OA
ENDBRANCH  25  27
ENDBRANCH  20  21
ENDBRANCH  19  20
BRANCH  19  31
ATOM     31  C39 ZIN AC000       7.433   1.259  -2.499  0.00  0.00     0.197 C 
ATOM     32  O40 ZIN AC000       7.977   0.789  -3.484  0.00  0.00    -0.646 OA
ATOM     33  O41 ZIN AC000       8.099   1.582  -1.531  0.00  0.00    -0.646 OA
ENDBRANCH  19  31
ENDBRANCH  16  19
ENDBRANCH   1  15
BRANCH   8  34
ATOM     34  C25 ZIN AC000       3.444   5.833 -11.754  0.00  0.00     0.034 A 
ATOM     35  C33 ZIN AC000       2.167   5.312 -11.549  0.00  0.00     0.055 A 
ATOM     36  C32 ZIN AC000       1.060   6.131 -11.695  0.00  0.00     0.086 A 
ATOM     37  C28 ZIN AC000       1.241   7.478 -12.061  0.00  0.00    -0.001 A 
ATOM     38  O31 ZIN AC000      -0.267   5.927 -11.564  0.00  0.00    -0.322 OA
ATOM     39  C27 ZIN AC000       2.525   7.987 -12.269  0.00  0.00     0.015 A 
ATOM     40  C29 ZIN AC000      -0.107   8.048 -12.133  0.00  0.00     0.039 A 
ATOM     41  C26 ZIN AC000       3.611   7.175 -12.118  0.00  0.00     0.018 A 
ATOM     42  C30 ZIN AC000      -0.952   7.053 -11.821  0.00  0.00     0.143 A 
ENDBRANCH   8  34
TORSDOF 7
