REMARK  4 active torsions:
REMARK  status: ('A' for Active; 'I' for Inactive)
REMARK    1  A    between atoms: N2_2  and  N4_4 
REMARK    2  A    between atoms: N4_4  and  N5_5 
REMARK    3  A    between atoms: N5_5  and  C6_6 
REMARK    4  A    between atoms: C7_7  and  C8_8 
REMARK       I    between atoms: C8_8  and  N9_9 
ROOT
ATOM      1  C6  ZIN AC000      -0.021  -0.724  -3.516  0.00  0.00     0.206 A 
ATOM      2  C7  ZIN AC000      -0.036  -0.160  -4.789  0.00  0.00     0.151 A 
ATOM      3  N11 ZIN AC000      -0.031  -1.222  -5.675  0.00  0.00    -0.343 N 
ATOM      4  C12 ZIN AC000      -0.015  -2.353  -4.945  0.00  0.00     0.210 A 
ATOM      5  N13 ZIN AC000      -0.004  -2.058  -3.673  0.00  0.00    -0.221 NA
ATOM      6  H22 ZIN AC000      -0.038  -1.164  -6.643  0.00  0.00     0.167 HD
ENDROOT
BRANCH   1   7
ATOM      7  N5  ZIN AC000      -0.019  -0.047  -2.329  0.00  0.00    -0.110 NA
BRANCH   7   8
ATOM      8  N4  ZIN AC000      -0.000  -0.698  -1.215  0.00  0.00    -0.070 NA
BRANCH   8   9
ATOM      9  N2  ZIN AC000       0.002  -0.004   0.002  0.00  0.00    -0.296 N 
ATOM     10  C1  ZIN AC000      -0.018   1.461   0.010  0.00  0.00     0.174 C 
ATOM     11  C3  ZIN AC000       0.024  -0.743   1.267  0.00  0.00     0.174 C 
ENDBRANCH   8   9
ENDBRANCH   7   8
ENDBRANCH   1   7
BRANCH   2  12
ATOM     12  C8  ZIN AC000      -0.051   1.264  -5.121  0.00  0.00     0.270 C 
ATOM     13  N9  ZIN AC000      -0.064   1.655  -6.411  0.00  0.00    -0.365 N 
ATOM     14  H20 ZIN AC000      -0.062   0.992  -7.119  0.00  0.00     0.159 HD
ATOM     15  H21 ZIN AC000      -0.074   2.600  -6.631  0.00  0.00     0.159 HD
ATOM     16  O10 ZIN AC000      -0.053   2.096  -4.232  0.00  0.00    -0.266 OA
ENDBRANCH   2  12
TORSDOF 4
