REMARK  1 active torsions:
REMARK  status: ('A' for Active; 'I' for Inactive)
REMARK    1  A    between atoms: C4_3  and  C6_4 
ROOT
ATOM      1  C1  ZIN AC000      -0.019   1.526   0.010  0.00  0.00     0.043 C 
ATOM      2  C2  ZIN AC000       0.002  -0.004   0.002  0.00  0.00     0.217 C 
ATOM      3  C4  ZIN AC000      -1.434  -0.534   0.014  0.00  0.00     0.184 C 
ATOM      4  O12 ZIN AC000      -2.081  -0.116   1.219  0.00  0.00    -0.377 OA
ATOM      5  C13 ZIN AC000      -1.413  -0.546   2.408  0.00  0.00     0.196 C 
ATOM      6  C14 ZIN AC000       0.022  -0.016   2.401  0.00  0.00     0.261 C 
ATOM      7  N15 ZIN AC000       0.712  -0.491   1.193  0.00  0.00    -0.066 N 
ATOM      8  H16 ZIN AC000       1.659  -0.143   1.187  0.00  0.00     0.280 HD
ATOM      9  C17 ZIN AC000       0.731  -1.960   1.185  0.00  0.00     0.270 C 
ENDROOT
BRANCH   3  10
ATOM     10  C6  ZIN AC000      -2.181   0.011  -1.176  0.00  0.00    -0.027 A 
ATOM     11  C11 ZIN AC000      -2.356  -0.773  -2.301  0.00  0.00     0.010 A 
ATOM     12  C10 ZIN AC000      -3.046  -0.275  -3.390  0.00  0.00     0.001 A 
ATOM     13  C9  ZIN AC000      -3.553   1.011  -3.358  0.00  0.00     0.000 A 
ATOM     14  C8  ZIN AC000      -3.373   1.797  -2.235  0.00  0.00     0.001 A 
ATOM     15  C7  ZIN AC000      -2.688   1.297  -1.144  0.00  0.00     0.010 A 
ENDBRANCH   3  10
TORSDOF 1
