REMARK  4 active torsions:
REMARK  status: ('A' for Active; 'I' for Inactive)
REMARK    1  A    between atoms: N2_2  and  C5_5 
REMARK    2  A    between atoms: C5_5  and  C6_6 
REMARK    3  A    between atoms: C6_6  and  C7_7 
REMARK    4  A    between atoms: C7_7  and  N8_8 
ROOT
ATOM      1  N8  ZIN AC000      -2.777  -4.025  -0.239  0.00  0.00    -0.345 N 
ATOM      2  C9  ZIN AC000      -2.920  -4.566  -1.515  0.00  0.00     0.052 A 
ATOM      3  C10 ZIN AC000      -3.561  -3.813  -2.493  0.00  0.00     0.031 A 
ATOM      4  C11 ZIN AC000      -3.717  -4.316  -3.771  0.00  0.00     0.002 A 
ATOM      5  C12 ZIN AC000      -3.237  -5.572  -4.086  0.00  0.00     0.002 A 
ATOM      6  C13 ZIN AC000      -2.599  -6.330  -3.121  0.00  0.00     0.021 A 
ATOM      7  C14 ZIN AC000      -2.439  -5.832  -1.835  0.00  0.00     0.032 A 
ATOM      8  S15 ZIN AC000      -1.629  -6.819  -0.623  0.00  0.00    -0.086 SA
ATOM      9  C16 ZIN AC000      -2.100  -6.068   0.898  0.00  0.00     0.032 A 
ATOM     10  C17 ZIN AC000      -1.949  -6.778   2.082  0.00  0.00     0.023 A 
ATOM     11  C18 ZIN AC000      -2.314  -6.207   3.287  0.00  0.00     0.025 A 
ATOM     12  C19 ZIN AC000      -2.832  -4.925   3.315  0.00  0.00     0.036 A 
ATOM     13 Cl20 ZIN AC000      -3.292  -4.209   4.828  0.00  0.00    -0.084 Cl
ATOM     14  C21 ZIN AC000      -2.985  -4.212   2.140  0.00  0.00     0.054 A 
ATOM     15  C22 ZIN AC000      -2.613  -4.777   0.922  0.00  0.00     0.053 A 
ENDROOT
BRANCH   1  16
ATOM     16  C7  ZIN AC000      -2.794  -2.566  -0.111  0.00  0.00     0.131 C 
BRANCH  16  17
ATOM     17  C6  ZIN AC000      -4.231  -2.090   0.109  0.00  0.00     0.048 C 
BRANCH  17  18
ATOM     18  C5  ZIN AC000      -4.249  -0.566   0.243  0.00  0.00     0.235 C 
BRANCH  18  19
ATOM     19  N2  ZIN AC000      -5.629  -0.109   0.454  0.00  0.00    -0.079 N 
ATOM     20  C1  ZIN AC000      -5.633   1.339   0.701  0.00  0.00     0.269 C 
ATOM     21  H3  ZIN AC000      -6.024  -0.588   1.249  0.00  0.00     0.278 HD
ATOM     22  C4  ZIN AC000      -6.430  -0.403  -0.742  0.00  0.00     0.269 C 
ENDBRANCH  18  19
ENDBRANCH  17  18
ENDBRANCH  16  17
ENDBRANCH   1  16
TORSDOF 4
