REMARK  4 active torsions:
REMARK  status: ('A' for Active; 'I' for Inactive)
REMARK    1  A    between atoms: C2_2  and  C3_3 
REMARK    2  A    between atoms: C3_3  and  O4_4 
REMARK    3  A    between atoms: C23_23  and  C24_24 
REMARK    4  A    between atoms: C24_24  and  N25_25 
ROOT
ATOM      1  C3  ZIN AC000       0.718  -0.497  -1.257  0.00  0.00     0.173 C 
ATOM      2  C5  ZIN AC000       2.140   0.016  -1.264  0.00  0.00     0.298 C 
ATOM      3  O6  ZIN AC000       2.467   0.965  -1.935  0.00  0.00    -0.261 OA
ATOM      4  O7  ZIN AC000       3.026  -0.640  -0.481  0.00  0.00    -0.314 OA
ATOM      5  C8  ZIN AC000       3.211  -2.041  -0.813  0.00  0.00     0.224 C 
ATOM      6  C9  ZIN AC000       1.883  -2.709  -1.051  0.00  0.00     0.044 A 
ATOM      7  C10 ZIN AC000       0.740  -2.005  -1.267  0.00  0.00     0.002 A 
ATOM      8  C11 ZIN AC000      -0.459  -2.692  -1.501  0.00  0.00     0.043 A 
ATOM      9  C12 ZIN AC000      -0.479  -4.071  -1.505  0.00  0.00     0.068 A 
ATOM     10  C13 ZIN AC000      -1.601  -5.013  -1.726  0.00  0.00     0.092 A 
ATOM     11  C14 ZIN AC000      -1.101  -6.322  -1.624  0.00  0.00    -0.008 A 
ATOM     12  C15 ZIN AC000      -1.927  -7.390  -1.786  0.00  0.00     0.025 A 
ATOM     13  C16 ZIN AC000      -3.289  -7.143  -2.057  0.00  0.00     0.004 A 
ATOM     14  C17 ZIN AC000      -3.740  -5.800  -2.148  0.00  0.00     0.068 A 
ATOM     15  N18 ZIN AC000      -2.882  -4.794  -1.980  0.00  0.00    -0.245 NA
ATOM     16  C19 ZIN AC000      -5.100  -5.551  -2.417  0.00  0.00     0.035 A 
ATOM     17  C20 ZIN AC000      -5.957  -6.593  -2.586  0.00  0.00     0.043 A 
ATOM     18  C21 ZIN AC000      -5.511  -7.916  -2.496  0.00  0.00     0.116 A 
ATOM     19  O22 ZIN AC000      -6.392  -8.935  -2.671  0.00  0.00    -0.192 OA
ATOM     20  C23 ZIN AC000      -4.198  -8.194  -2.236  0.00  0.00     0.017 A 
ATOM     21  C29 ZIN AC000       0.372  -6.205  -1.332  0.00  0.00     0.173 A 
ATOM     22  N30 ZIN AC000       0.673  -4.768  -1.276  0.00  0.00    -0.307 N 
ATOM     23  C31 ZIN AC000       1.832  -4.119  -1.051  0.00  0.00     0.257 A 
ATOM     24  O32 ZIN AC000       2.850  -4.758  -0.844  0.00  0.00    -0.267 OA
ENDROOT
BRANCH  20  25
ATOM     25  C24 ZIN AC000      -3.732  -9.624  -2.141  0.00  0.00     0.276 C 
BRANCH  25  26
ATOM     26  N25 ZIN AC000      -3.311 -10.091  -3.469  0.00  0.00    -0.075 N 
ATOM     27  H26 ZIN AC000      -4.064  -9.956  -4.127  0.00  0.00     0.279 HD
ATOM     28  C27 ZIN AC000      -2.135  -9.327  -3.907  0.00  0.00     0.269 C 
ATOM     29  C28 ZIN AC000      -2.970 -11.518  -3.401  0.00  0.00     0.269 C 
ENDBRANCH  25  26
ENDBRANCH  20  25
BRANCH   1  30
ATOM     30  C2  ZIN AC000       0.002  -0.004   0.002  0.00  0.00     0.049 C 
ATOM     31  C1  ZIN AC000      -0.019   1.526   0.010  0.00  0.00     0.009 C 
ENDBRANCH   1  30
BRANCH   1  32
ATOM     32  O4  ZIN AC000       0.030  -0.022  -2.416  0.00  0.00    -0.375 OA
ATOM     33  H38 ZIN AC000      -0.019   0.942  -2.475  0.00  0.00     0.211 HD
ENDBRANCH   1  32
TORSDOF 4
