REMARK  6 active torsions:
REMARK  status: ('A' for Active; 'I' for Inactive)
REMARK    1  A    between atoms: N2_2  and  C4_4 
REMARK    2  A    between atoms: C4_4  and  C5_5 
REMARK    3  A    between atoms: C5_5  and  C7_6 
REMARK    4  A    between atoms: C5_5  and  C14_13 
REMARK    5  A    between atoms: C10_9  and  O11_10 
REMARK    6  A    between atoms: C14_13  and  O15_14 
ROOT
ATOM      1  C5  ZIN AC000      -1.971  -0.185  -1.437  0.00  0.00     0.081 C 
ENDROOT
BRANCH   1   2
ATOM      2  C4  ZIN AC000      -1.360  -0.549  -0.083  0.00  0.00     0.283 C 
BRANCH   2   3
ATOM      3  N2  ZIN AC000       0.002  -0.004   0.002  0.00  0.00     0.080 N 
ATOM      4  C1  ZIN AC000      -0.018   1.465   0.010  0.00  0.00     0.309 C 
ATOM      5  C3  ZIN AC000       0.706  -0.527   1.180  0.00  0.00     0.309 C 
ENDBRANCH   2   3
ENDBRANCH   1   2
BRANCH   1   6
ATOM      6  C7  ZIN AC000      -1.199  -0.869  -2.536  0.00  0.00    -0.049 A 
ATOM      7  C13 ZIN AC000      -0.575  -0.116  -3.513  0.00  0.00     0.010 A 
ATOM      8  C12 ZIN AC000       0.137  -0.740  -4.519  0.00  0.00     0.037 A 
ATOM      9  C10 ZIN AC000       0.217  -2.125  -4.554  0.00  0.00     0.065 A 
ATOM     10  C9  ZIN AC000      -0.414  -2.879  -3.575  0.00  0.00     0.037 A 
ATOM     11  C8  ZIN AC000      -1.121  -2.249  -2.569  0.00  0.00     0.010 A 
BRANCH   9  12
ATOM     12  O11 ZIN AC000       0.913  -2.742  -5.545  0.00  0.00    -0.361 OA
ATOM     13  H31 ZIN AC000       0.383  -2.950  -6.327  0.00  0.00     0.217 HD
ENDBRANCH   9  12
ENDBRANCH   1   6
BRANCH   1  14
ATOM     14  C14 ZIN AC000      -3.430  -0.643  -1.478  0.00  0.00     0.067 C 
ATOM     15  C20 ZIN AC000      -4.042  -0.280  -2.832  0.00  0.00     0.038 C 
ATOM     16  C19 ZIN AC000      -5.501  -0.738  -2.873  0.00  0.00     0.003 C 
ATOM     17  C18 ZIN AC000      -6.284  -0.044  -1.757  0.00  0.00     0.000 C 
ATOM     18  C17 ZIN AC000      -5.673  -0.407  -0.402  0.00  0.00     0.003 C 
ATOM     19  C16 ZIN AC000      -4.214   0.051  -0.362  0.00  0.00     0.038 C 
BRANCH  14  20
ATOM     20  O15 ZIN AC000      -3.490  -2.059  -1.292  0.00  0.00    -0.389 OA
ATOM     21  H34 ZIN AC000      -4.388  -2.420  -1.306  0.00  0.00     0.210 HD
ENDBRANCH  14  20
ENDBRANCH   1  14
TORSDOF 6
