REMARK  4 active torsions:
REMARK  status: ('A' for Active; 'I' for Inactive)
REMARK    1  A    between atoms: C2_2  and  N4_3 
REMARK    2  A    between atoms: C2_2  and  C9_8 
REMARK    3  A    between atoms: N4_3  and  C5_4 
REMARK    4  A    between atoms: C9_8  and  C11_10 
ROOT
ATOM      1  C9  ZIN AC000       0.408  -0.894  -1.233  0.00  0.00     0.192 C 
ATOM      2  O10 ZIN AC000       1.427  -1.552  -1.229  0.00  0.00    -0.290 OA
ENDROOT
BRANCH   1   3
ATOM      3  C2  ZIN AC000       0.030  -0.084  -0.019  0.00  0.00     0.291 C 
ATOM      4  C1  ZIN AC000       0.299   1.397  -0.291  0.00  0.00     0.051 C 
BRANCH   3   5
ATOM      5  N4  ZIN AC000       0.829  -0.524   1.132  0.00  0.00     0.103 N 
ATOM      6  H21 ZIN AC000       1.325  -1.377   0.923  0.00  0.00     0.317 HD
BRANCH   5   7
ATOM      7  C5  ZIN AC000      -0.011  -0.682   2.326  0.00  0.00     0.148 C 
ATOM      8  C6  ZIN AC000      -1.048  -1.779   2.079  0.00  0.00     0.048 C 
ATOM      9  C7  ZIN AC000       0.866  -1.069   3.519  0.00  0.00     0.048 C 
ATOM     10  C8  ZIN AC000      -0.726   0.637   2.626  0.00  0.00     0.048 C 
ENDBRANCH   5   7
ENDBRANCH   3   5
ENDBRANCH   1   3
BRANCH   1  11
ATOM     11  C11 ZIN AC000      -0.459  -0.887  -2.422  0.00  0.00     0.013 A 
ATOM     12  C17 ZIN AC000      -0.111  -1.638  -3.550  0.00  0.00     0.039 A 
ATOM     13  C15 ZIN AC000      -0.933  -1.631  -4.658  0.00  0.00     0.035 A 
ATOM     14  C14 ZIN AC000      -2.093  -0.873  -4.660  0.00  0.00     0.024 A 
ATOM     15 Cl16 ZIN AC000      -0.508  -2.567  -6.057  0.00  0.00    -0.084 Cl
ATOM     16  C13 ZIN AC000      -2.439  -0.123  -3.550  0.00  0.00     0.003 A 
ATOM     17  C12 ZIN AC000      -1.631  -0.125  -2.432  0.00  0.00     0.015 A 
ENDBRANCH   1  11
TORSDOF 4
