REMARK  4 active torsions:
REMARK  status: ('A' for Active; 'I' for Inactive)
REMARK    1  A    between atoms: C6_6  and  N7_7 
REMARK    2  A    between atoms: N7_7  and  C9_9 
REMARK    3  A    between atoms: C9_9  and  O11_11 
REMARK    4  A    between atoms: O11_11  and  C12_12 
ROOT
ATOM      1  C9  ZIN AC000       0.208  -2.130   3.560  0.00  0.00     0.222 C 
ATOM      2  S10 ZIN AC000       0.281  -0.420   3.577  0.00  0.00    -0.032 SA
ENDROOT
BRANCH   1   3
ATOM      3  N7  ZIN AC000       0.094  -2.788   2.389  0.00  0.00    -0.322 N 
ATOM      4  C8  ZIN AC000      -0.071  -4.244   2.380  0.00  0.00     0.159 C 
BRANCH   3   5
ATOM      5  C6  ZIN AC000       0.132  -2.081   1.183  0.00  0.00     0.037 A 
ATOM      6  C5  ZIN AC000      -0.890  -1.197   0.862  0.00  0.00     0.030 A 
ATOM      7  C4  ZIN AC000      -0.849  -0.500  -0.330  0.00  0.00     0.003 A 
ATOM      8  C3  ZIN AC000       0.208  -0.681  -1.203  0.00  0.00     0.007 A 
ATOM      9  C2  ZIN AC000       1.227  -1.561  -0.886  0.00  0.00    -0.060 A 
ATOM     10  C1  ZIN AC000       2.377  -1.755  -1.840  0.00  0.00     0.048 C 
ATOM     11  C22 ZIN AC000       1.189  -2.265   0.302  0.00  0.00     0.036 A 
ENDBRANCH   3   5
ENDBRANCH   1   3
BRANCH   1  12
ATOM     12  O11 ZIN AC000       0.266  -2.819   4.717  0.00  0.00    -0.284 OA
BRANCH  12  13
ATOM     13  C12 ZIN AC000       0.255  -2.095   5.867  0.00  0.00     0.079 A 
ATOM     14  C21 ZIN AC000       1.372  -2.063   6.653  0.00  0.00     0.049 A 
ATOM     15  C20 ZIN AC000       1.364  -1.311   7.840  0.00  0.00    -0.023 A 
ATOM     16  C15 ZIN AC000       0.191  -0.606   8.209  0.00  0.00    -0.026 A 
ATOM     17  C19 ZIN AC000       2.496  -1.250   8.671  0.00  0.00     0.012 A 
ATOM     18  C14 ZIN AC000      -0.941  -0.666   7.379  0.00  0.00     0.015 A 
ATOM     19  C16 ZIN AC000       0.183   0.141   9.399  0.00  0.00     0.012 A 
ATOM     20  C13 ZIN AC000      -0.900  -1.398   6.233  0.00  0.00     0.038 A 
ATOM     21  C17 ZIN AC000       1.298   0.177  10.180  0.00  0.00     0.001 A 
ATOM     22  C18 ZIN AC000       2.451  -0.516   9.817  0.00  0.00     0.001 A 
ENDBRANCH  12  13
ENDBRANCH   1  12
TORSDOF 4
