REMARK  2 active torsions:
REMARK  status: ('A' for Active; 'I' for Inactive)
REMARK    1  A    between atoms: C2_2  and  C4_4 
REMARK    2  A    between atoms: C4_4  and  C5_5 
ROOT
ATOM      1  C5  <0> d          -2.462   0.956   0.019  0.00  0.00    -0.048 A 
ATOM      2  C6  <0> d          -2.983   0.502  -1.178  0.00  0.00     0.007 A 
ATOM      3  C7  <0> d          -4.021  -0.410  -1.178  0.00  0.00     0.001 A 
ATOM      4  C8  <0> d          -4.538  -0.869   0.019  0.00  0.00     0.000 A 
ATOM      5  C9  <0> d          -4.016  -0.416   1.216  0.00  0.00     0.001 A 
ATOM      6  C10 <0> d          -2.975   0.493   1.216  0.00  0.00     0.007 A 
ENDROOT
BRANCH   1   7
ATOM      7  C4  <0> d          -1.330   1.951   0.019  0.00  0.00     0.151 C 
BRANCH   7   8
ATOM      8  C2  <0> d          -0.015   1.215   0.009  0.00  0.00     0.176 C 
ATOM      9  O1  <0> d           0.002  -0.004   0.002  0.00  0.00    -0.648 OA
ATOM     10  O3  <0> d           1.033   1.839   0.002  0.00  0.00    -0.648 OA
ENDBRANCH   7   8
ENDBRANCH   1   7
TORSDOF 2
