REMARK  5 active torsions:
REMARK  status: ('A' for Active; 'I' for Inactive)
REMARK    1  A    between atoms: C2_2  and  O4_4 
REMARK    2  A    between atoms: C2_2  and  C20_20 
REMARK    3  A    between atoms: O4_4  and  C5_5 
REMARK    4  A    between atoms: C8_8  and  C9_9 
REMARK    5  A    between atoms: C9_9  and  C11_11 
ROOT
ATOM      1  C5  ZIN AC000      -1.694  -0.500   1.538  0.00  0.00     0.070 A 
ATOM      2  C6  ZIN AC000      -1.540   0.636   2.324  0.00  0.00     0.038 A 
ATOM      3  C7  ZIN AC000      -2.567   1.055   3.139  0.00  0.00     0.018 A 
ATOM      4  C8  ZIN AC000      -3.766   0.336   3.177  0.00  0.00     0.015 A 
ATOM      5  C18 ZIN AC000      -3.916  -0.807   2.385  0.00  0.00     0.018 A 
ATOM      6  C19 ZIN AC000      -2.885  -1.216   1.568  0.00  0.00     0.038 A 
ENDROOT
BRANCH   4   7
ATOM      7  C9  ZIN AC000      -4.869   0.781   4.048  0.00  0.00     0.192 C 
ATOM      8  O10 ZIN AC000      -4.928   1.941   4.409  0.00  0.00    -0.287 OA
BRANCH   7   9
ATOM      9  C11 ZIN AC000      -5.902  -0.182   4.483  0.00  0.00     0.015 A 
ATOM     10  C17 ZIN AC000      -7.160   0.273   4.886  0.00  0.00     0.017 A 
ATOM     11  C16 ZIN AC000      -8.120  -0.631   5.286  0.00  0.00     0.025 A 
ATOM     12  C14 ZIN AC000      -7.838  -1.987   5.298  0.00  0.00     0.034 A 
ATOM     13  C13 ZIN AC000      -6.590  -2.444   4.905  0.00  0.00     0.025 A 
ATOM     14 Cl15 ZIN AC000      -9.051  -3.118   5.809  0.00  0.00    -0.084 Cl
ATOM     15  C12 ZIN AC000      -5.623  -1.550   4.498  0.00  0.00     0.017 A 
ENDBRANCH   7   9
ENDBRANCH   4   7
BRANCH   1  16
ATOM     16  O4  ZIN AC000      -0.679  -0.910   0.735  0.00  0.00    -0.330 OA
BRANCH  16  17
ATOM     17  C2  ZIN AC000       0.560  -0.206   0.846  0.00  0.00     0.148 C 
ATOM     18  C1  ZIN AC000       1.093  -0.332   2.274  0.00  0.00     0.058 C 
ATOM     19  C3  ZIN AC000       1.574  -0.803  -0.132  0.00  0.00     0.058 C 
BRANCH  17  20
ATOM     20  C20 ZIN AC000       0.342   1.249   0.517  0.00  0.00     0.209 C 
ATOM     21  O21 ZIN AC000       1.278   2.029   0.552  0.00  0.00    -0.646 OA
ATOM     22  O22 ZIN AC000      -0.771   1.646   0.217  0.00  0.00    -0.646 OA
ENDBRANCH  17  20
ENDBRANCH  16  17
ENDBRANCH   1  16
TORSDOF 5
