REMARK  5 active torsions:
REMARK  status: ('A' for Active; 'I' for Inactive)
REMARK    1  A    between atoms: N1_1  and  C2_2 
REMARK    2  A    between atoms: C3_3  and  C4_4 
REMARK    3  A    between atoms: C4_4  and  C5_5 
REMARK    4  A    between atoms: C11_11  and  C12_12 
REMARK    5  A    between atoms: C12_12  and  C14_14 
ROOT
ATOM      1  C2  ZIN AC000       0.022   0.059   0.166  0.00  0.00     0.047 A 
ATOM      2  C3  ZIN AC000      -1.182  -0.622   0.287  0.00  0.00    -0.021 A 
ATOM      3  C8  ZIN AC000      -1.218  -1.994   0.150  0.00  0.00     0.010 A 
ATOM      4  C9  ZIN AC000      -0.055  -2.705  -0.108  0.00  0.00     0.002 A 
ATOM      5  C10 ZIN AC000       1.149  -2.048  -0.230  0.00  0.00     0.018 A 
ATOM      6  C11 ZIN AC000       1.201  -0.657  -0.102  0.00  0.00     0.042 A 
ENDROOT
BRANCH   6   7
ATOM      7  C12 ZIN AC000       2.486   0.052  -0.232  0.00  0.00     0.194 C 
ATOM      8  O13 ZIN AC000       3.293   0.020   0.677  0.00  0.00    -0.287 OA
BRANCH   7   9
ATOM      9  C14 ZIN AC000       2.794   0.803  -1.467  0.00  0.00     0.015 A 
ATOM     10  C20 ZIN AC000       4.036   1.424  -1.619  0.00  0.00     0.017 A 
ATOM     11  C19 ZIN AC000       4.319   2.118  -2.776  0.00  0.00     0.020 A 
ATOM     12  C17 ZIN AC000       3.371   2.210  -3.782  0.00  0.00     0.011 A 
ATOM     13  C16 ZIN AC000       2.136   1.601  -3.635  0.00  0.00     0.020 A 
ATOM     14 Br18 ZIN AC000       3.765   3.171  -5.362  0.00  0.00    -0.051 Br
ATOM     15  C15 ZIN AC000       1.842   0.899  -2.485  0.00  0.00     0.017 A 
ENDBRANCH   7   9
ENDBRANCH   6   7
BRANCH   1  16
ATOM     16  N1  ZIN AC000       0.060   1.440   0.302  0.00  0.00    -0.398 N 
ATOM     17  H21 ZIN AC000       0.913   1.903   0.313  0.00  0.00     0.156 HD
ATOM     18  H22 ZIN AC000      -0.765   1.942   0.383  0.00  0.00     0.156 HD
ENDBRANCH   1  16
BRANCH   2  19
ATOM     19  C4  ZIN AC000      -2.452   0.140   0.568  0.00  0.00     0.154 C 
BRANCH  19  20
ATOM     20  C5  ZIN AC000      -3.033   0.643  -0.729  0.00  0.00     0.177 C 
ATOM     21  O6  ZIN AC000      -2.468   0.406  -1.783  0.00  0.00    -0.648 OA
ATOM     22  O7  ZIN AC000      -4.068   1.288  -0.723  0.00  0.00    -0.648 OA
ENDBRANCH  19  20
ENDBRANCH   2  19
TORSDOF 5
