REMARK  0 active torsions:
REMARK  status: ('A' for Active; 'I' for Inactive)
ROOT
ATOM      1  C1  ZIN AC000      -0.016   1.331   0.009  0.00  0.00     0.019 C 
ATOM      2  C2  ZIN AC000       0.002  -0.004   0.002  0.00  0.00    -0.060 C 
ATOM      3  C3  ZIN AC000      -1.273  -0.823   0.003  0.00  0.00     0.043 C 
ATOM      4  C4  ZIN AC000      -1.149  -1.932   1.055  0.00  0.00     0.000 C 
ATOM      5  C6  ZIN AC000      -2.377  -2.824   0.988  0.00  0.00     0.006 C 
ATOM      6  C8  ZIN AC000      -3.705  -2.146   1.346  0.00  0.00     0.013 C 
ATOM      7  C9  ZIN AC000      -4.587  -3.345   1.790  0.00  0.00     0.079 C 
ATOM      8  C10 ZIN AC000      -3.632  -4.451   2.225  0.00  0.00     0.135 C 
ATOM      9  O11 ZIN AC000      -3.925  -5.569   2.575  0.00  0.00    -0.297 OA
ATOM     10  C12 ZIN AC000      -2.240  -3.884   2.113  0.00  0.00     0.021 C 
ATOM     11  C13 ZIN AC000      -1.868  -3.168   3.413  0.00  0.00     0.024 C 
ATOM     12  C14 ZIN AC000      -1.136  -4.850   1.730  0.00  0.00     0.018 C 
ATOM     13  C15 ZIN AC000       0.173  -4.048   1.699  0.00  0.00     0.007 C 
ATOM     14  C16 ZIN AC000       0.095  -2.787   0.766  0.00  0.00     0.007 C 
ATOM     15  C18 ZIN AC000       1.387  -1.979   0.919  0.00  0.00     0.006 C 
ATOM     16  C19 ZIN AC000       1.465  -1.497   2.369  0.00  0.00     0.025 C 
ATOM     17  C20 ZIN AC000       2.586  -2.828   0.675  0.00  0.00    -0.008 C 
ATOM     18  C21 ZIN AC000       3.578  -2.491  -0.133  0.00  0.00     0.052 C 
ATOM     19  C22 ZIN AC000       3.535  -1.216  -0.871  0.00  0.00     0.172 C 
ATOM     20  O23 ZIN AC000       4.480  -0.858  -1.550  0.00  0.00    -0.289 OA
ATOM     21  C24 ZIN AC000       2.331  -0.390  -0.770  0.00  0.00     0.063 C 
ATOM     22  C25 ZIN AC000       1.265  -0.768  -0.014  0.00  0.00    -0.036 C 
ENDROOT
TORSDOF 0
