REMARK  0 active torsions:
REMARK  status: ('A' for Active; 'I' for Inactive)
REMARK       I    between atoms: C2_2  and  N4_4 
ROOT
ATOM      1  C1  <0> d          -0.018   1.503   0.010  0.00  0.00     0.119 C 
ATOM      2  C2  <0> d           0.002  -0.004   0.002  0.00  0.00     0.239 C 
ATOM      3  O3  <0> d           0.020  -0.616   1.049  0.00  0.00    -0.272 OA
ATOM      4  N4  <0> d           0.000  -0.672  -1.169  0.00  0.00    -0.201 N 
ATOM      5  O5  <0> d           0.019  -2.087  -1.177  0.00  0.00    -0.086 OA
ATOM      6  H9  <0> d          -0.015  -0.182  -2.006  0.00  0.00     0.200 HD
ENDROOT
TORSDOF 0
