REMARK  8 active torsions:
REMARK  status: ('A' for Active; 'I' for Inactive)
REMARK    1  A    between atoms: O2_2  and  C3_3 
REMARK    2  A    between atoms: C3_3  and  C4_4 
REMARK    3  A    between atoms: C5_5  and  C6_6 
REMARK    4  A    between atoms: C12_12  and  N14_13 
REMARK       I    between atoms: N14_13  and  C15_14 
REMARK    5  A    between atoms: C15_14  and  C17_16 
REMARK    6  A    between atoms: C17_16  and  C21_20 
REMARK    7  A    between atoms: N18_17  and  O19_18 
REMARK    8  A    between atoms: C24_23  and  N25_24 
ROOT
ATOM      1  N14 ZIN AC000      -1.789  -6.134  -1.539  0.00  0.00    -0.339 N 
ATOM      2  C15 ZIN AC000      -2.621  -7.192  -1.588  0.00  0.00     0.275 C 
ATOM      3  O16 ZIN AC000      -2.592  -8.030  -0.708  0.00  0.00    -0.266 OA
ATOM      4  H36 ZIN AC000      -1.761  -5.504  -2.276  0.00  0.00     0.163 HD
ENDROOT
BRANCH   1   5
ATOM      5  C12 ZIN AC000      -0.926  -5.934  -0.372  0.00  0.00     0.211 C 
ATOM      6  C10 ZIN AC000      -1.384  -4.839   0.563  0.00  0.00     0.251 C 
ATOM      7  N9  ZIN AC000      -0.554  -3.913   0.100  0.00  0.00    -0.293 N 
ATOM      8  O11 ZIN AC000      -2.224  -4.815   1.438  0.00  0.00    -0.271 OA
ATOM      9  C5  ZIN AC000      -0.352  -2.528   0.036  0.00  0.00     0.121 C 
ATOM     10  C27 ZIN AC000       0.226  -4.971  -0.600  0.00  0.00     0.187 C 
ATOM     11  C4  ZIN AC000       0.377  -2.006  -0.942  0.00  0.00    -0.013 C 
ATOM     12  C30 ZIN AC000       1.097  -2.723  -2.037  0.00  0.00     0.115 C 
ATOM     13  S29 ZIN AC000       0.449  -4.410  -2.321  0.00  0.00    -0.136 SA
BRANCH   9  14
ATOM     14  C6  ZIN AC000      -0.950  -1.651   1.056  0.00  0.00     0.227 C 
ATOM     15  O7  ZIN AC000      -0.854  -0.436   0.949  0.00  0.00    -0.643 OA
ATOM     16  O8  ZIN AC000      -1.542  -2.137   2.010  0.00  0.00    -0.643 OA
ENDBRANCH   9  14
BRANCH  11  17
ATOM     17  C3  ZIN AC000       0.488  -0.503  -0.953  0.00  0.00     0.204 C 
BRANCH  17  18
ATOM     18  O2  ZIN AC000       1.226  -0.088  -2.104  0.00  0.00    -0.392 OA
ATOM     19  C1  ZIN AC000       1.294   1.330  -2.271  0.00  0.00     0.201 C 
ENDBRANCH  17  18
ENDBRANCH  11  17
ENDBRANCH   1   5
BRANCH   2  20
ATOM     20  C17 ZIN AC000      -3.572  -7.336  -2.715  0.00  0.00     0.180 C 
ATOM     21  N18 ZIN AC000      -4.459  -8.291  -2.702  0.00  0.00    -0.126 NA
BRANCH  21  22
ATOM     22  O19 ZIN AC000      -4.587  -9.122  -1.563  0.00  0.00    -0.261 OA
ATOM     23  C20 ZIN AC000      -5.597 -10.126  -1.688  0.00  0.00     0.240 C 
ENDBRANCH  21  22
BRANCH  20  24
ATOM     24  C21 ZIN AC000      -3.516  -6.394  -3.854  0.00  0.00     0.102 A 
ATOM     25  N26 ZIN AC000      -2.560  -5.472  -3.973  0.00  0.00    -0.222 NA
ATOM     26  C24 ZIN AC000      -2.612  -4.705  -5.017  0.00  0.00     0.164 A 
ATOM     27  S23 ZIN AC000      -4.009  -5.139  -5.997  0.00  0.00    -0.062 SA
ATOM     28  C22 ZIN AC000      -4.430  -6.404  -4.845  0.00  0.00     0.087 A 
BRANCH  26  29
ATOM     29  N25 ZIN AC000      -1.710  -3.698  -5.313  0.00  0.00    -0.378 N 
ATOM     30  H41 ZIN AC000      -1.823  -3.166  -6.116  0.00  0.00     0.158 HD
ATOM     31  H42 ZIN AC000      -0.964  -3.523  -4.717  0.00  0.00     0.158 HD
ENDBRANCH  26  29
ENDBRANCH  20  24
ENDBRANCH   2  20
TORSDOF 8
