REMARK  4 active torsions:
REMARK  status: ('A' for Active; 'I' for Inactive)
REMARK       I    between atoms: C2_2  and  N4_4 
REMARK    1  A    between atoms: N4_4  and  C5_5 
REMARK    2  A    between atoms: C5_5  and  C6_6 
REMARK    3  A    between atoms: C6_6  and  C7_7 
REMARK    4  A    between atoms: C7_7  and  S8_8 
ROOT
ATOM      1  C5  <0> d          -1.136  -2.159   0.001  0.00  0.00     0.123 C 
ENDROOT
BRANCH   1   2
ATOM      2  N4  <0> d          -1.156  -0.694   0.009  0.00  0.00    -0.361 N 
ATOM      3  C2  <0> d           0.002  -0.004   0.002  0.00  0.00     0.213 C 
ATOM      4  C1  <0> d          -0.018   1.503   0.010  0.00  0.00     0.117 C 
ATOM      5  O3  <0> d           1.060  -0.596  -0.011  0.00  0.00    -0.274 OA
ATOM      6  H15 <0> d          -2.002  -0.220   0.020  0.00  0.00     0.162 HD
ENDBRANCH   1   2
BRANCH   1   7
ATOM      7  C6  <0> d          -2.571  -2.688   0.012  0.00  0.00     0.037 C 
BRANCH   7   8
ATOM      8  C7  <0> d          -2.551  -4.218   0.004  0.00  0.00     0.167 C 
BRANCH   8   9
ATOM      9  S8  <0> d          -4.252  -4.846   0.017  0.00  0.00     0.101 S 
ATOM     10  O9  <0> d          -4.216  -6.300   0.009  0.00  0.00    -0.595 OA
ATOM     11  O10 <0> d          -4.919  -4.369   1.218  0.00  0.00    -0.595 OA
ATOM     12  O11 <0> d          -4.942  -4.356  -1.167  0.00  0.00    -0.595 OA
ENDBRANCH   8   9
ENDBRANCH   7   8
ENDBRANCH   1   7
TORSDOF 4
