REMARK  5 active torsions:
REMARK  status: ('A' for Active; 'I' for Inactive)
REMARK    1  A    between atoms: C2_2  and  C3_3 
REMARK    2  A    between atoms: C3_3  and  C4_4 
REMARK    3  A    between atoms: C4_4  and  N5_5 
REMARK    4  A    between atoms: C10_10  and  C12_11 
REMARK       I    between atoms: C12_11  and  N14_13 
REMARK    5  A    between atoms: N14_13  and  C15_14 
ROOT
ATOM      1  C12 ZIN AC000       1.225  -4.660  -1.150  0.00  0.00     0.255 C 
ATOM      2  O13 ZIN AC000       1.210  -3.953  -0.165  0.00  0.00    -0.271 OA
ATOM      3  N14 ZIN AC000       1.708  -5.916  -1.071  0.00  0.00    -0.324 N 
ATOM      4  H40 ZIN AC000       1.794  -6.454  -1.873  0.00  0.00     0.169 HD
ENDROOT
BRANCH   1   5
ATOM      5  C10 ZIN AC000       0.704  -4.135  -2.463  0.00  0.00     0.314 C 
ATOM      6  N5  ZIN AC000      -0.334  -3.127  -2.209  0.00  0.00     0.102 N 
ATOM      7  C6  ZIN AC000      -0.899  -2.618  -3.465  0.00  0.00     0.273 C 
ATOM      8  C7  ZIN AC000       0.202  -1.938  -4.282  0.00  0.00     0.030 C 
ATOM      9  C8  ZIN AC000       1.314  -2.949  -4.574  0.00  0.00     0.004 C 
ATOM     10  C9  ZIN AC000       1.852  -3.500  -3.250  0.00  0.00     0.046 C 
BRANCH   6  11
ATOM     11  C4  ZIN AC000      -1.387  -3.664  -1.337  0.00  0.00     0.273 C 
BRANCH  11  12
ATOM     12  C3  ZIN AC000      -2.497  -2.623  -1.177  0.00  0.00     0.030 C 
BRANCH  12  13
ATOM     13  C2  ZIN AC000      -3.594  -3.182  -0.269  0.00  0.00    -0.003 C 
ATOM     14  C1  ZIN AC000      -4.704  -2.141  -0.110  0.00  0.00     0.005 C 
ENDBRANCH  12  13
ENDBRANCH  11  12
ENDBRANCH   6  11
ENDBRANCH   1   5
BRANCH   3  15
ATOM     15  C15 ZIN AC000       2.085  -6.444   0.169  0.00  0.00     0.046 A 
ATOM     16  C21 ZIN AC000       1.507  -7.620   0.629  0.00  0.00    -0.035 A 
ATOM     17  C20 ZIN AC000       1.886  -8.142   1.851  0.00  0.00     0.009 A 
ATOM     18  C22 ZIN AC000       0.478  -8.333  -0.209  0.00  0.00     0.050 C 
ATOM     19  C19 ZIN AC000       2.830  -7.488   2.621  0.00  0.00     0.001 A 
ATOM     20  C18 ZIN AC000       3.403  -6.313   2.168  0.00  0.00     0.009 A 
ATOM     21  C16 ZIN AC000       3.033  -5.790   0.944  0.00  0.00    -0.035 A 
ATOM     22  C17 ZIN AC000       3.658  -4.510   0.452  0.00  0.00     0.050 C 
ENDBRANCH   3  15
TORSDOF 5
