REMARK  4 active torsions:
REMARK  status: ('A' for Active; 'I' for Inactive)
REMARK    1  A    between atoms: C2_2  and  C3_3 
REMARK    2  A    between atoms: C3_3  and  C4_4 
REMARK    3  A    between atoms: C4_4  and  C5_5 
REMARK    4  A    between atoms: C5_5  and  C6_6 
ROOT
ATOM      1  C4  ZIN AC000       1.576  -1.707   0.950  0.00  0.00     0.127 A 
ATOM      2  C9  ZIN AC000       1.544  -0.694   2.079  0.00  0.00     0.266 A 
ATOM      3  O10 ZIN AC000       2.416   0.139   2.201  0.00  0.00    -0.270 OA
ATOM      4  N11 ZIN AC000       0.508  -0.755   2.942  0.00  0.00    -0.157 NA
ATOM      5  C12 ZIN AC000      -0.463  -1.668   2.821  0.00  0.00     0.351 A 
ATOM      6  O13 ZIN AC000      -1.358  -1.650   3.642  0.00  0.00    -0.244 OA
ATOM      7  N14 ZIN AC000      -0.520  -2.598   1.861  0.00  0.00    -0.276 N 
ATOM      8  C15 ZIN AC000       0.427  -2.697   0.905  0.00  0.00     0.244 A 
ATOM      9  O16 ZIN AC000       0.362  -3.546   0.041  0.00  0.00    -0.272 OA
ATOM     10  H31 ZIN AC000      -1.264  -3.220   1.853  0.00  0.00     0.173 HD
ENDROOT
BRANCH   1  11
ATOM     11  C3  ZIN AC000       1.598  -0.942  -0.375  0.00  0.00     0.055 C 
BRANCH  11  12
ATOM     12  C2  ZIN AC000       0.291  -0.213  -0.556  0.00  0.00    -0.035 C 
ATOM     13  C1  ZIN AC000       0.287   1.079  -0.771  0.00  0.00     0.007 C 
ENDBRANCH  11  12
ENDBRANCH   1  11
BRANCH   1  14
ATOM     14  C5  ZIN AC000       2.881  -2.497   1.062  0.00  0.00     0.033 C 
BRANCH  14  15
ATOM     15  C6  ZIN AC000       2.826  -3.401   2.295  0.00  0.00    -0.021 C 
ATOM     16  C7  ZIN AC000       4.041  -4.331   2.300  0.00  0.00     0.009 C 
ATOM     17  C8  ZIN AC000       2.838  -2.540   3.559  0.00  0.00     0.009 C 
ENDBRANCH  14  15
ENDBRANCH   1  14
TORSDOF 4
