REMARK  22 active torsions:
REMARK  status: ('A' for Active; 'I' for Inactive)
REMARK    1  A    between atoms: C2_2  and  C3_3 
REMARK    2  A    between atoms: C3_3  and  C4_4 
REMARK    3  A    between atoms: C4_4  and  C5_5 
REMARK    4  A    between atoms: C5_5  and  C6_6 
REMARK    5  A    between atoms: C6_6  and  C7_7 
REMARK    6  A    between atoms: C7_7  and  C8_8 
REMARK    7  A    between atoms: C8_8  and  C9_9 
REMARK    8  A    between atoms: C9_9  and  C10_10 
REMARK    9  A    between atoms: C10_10  and  C11_11 
REMARK   10  A    between atoms: C11_11  and  C12_12 
REMARK   11  A    between atoms: C12_12  and  C13_13 
REMARK   12  A    between atoms: C13_13  and  C14_14 
REMARK   13  A    between atoms: C14_14  and  C15_15 
REMARK   14  A    between atoms: C15_15  and  C16_16 
REMARK   15  A    between atoms: C16_16  and  N17_17 
REMARK   16  A    between atoms: N17_17  and  C20_20 
REMARK   17  A    between atoms: C20_20  and  C21_21 
REMARK   18  A    between atoms: C21_21  and  N22_22 
REMARK   19  A    between atoms: N22_22  and  C23_23 
REMARK   20  A    between atoms: N22_22  and  C32_32 
REMARK   21  A    between atoms: C23_23  and  C24_24 
REMARK   22  A    between atoms: C27_27  and  O28_28 
ROOT
ATOM      1  N17 ZIN AC000     -11.278 -14.928   0.030  0.00  0.00    -0.073 N 
ATOM      2  C18 ZIN AC000     -11.966 -14.455   1.238  0.00  0.00     0.272 C 
ATOM      3  C19 ZIN AC000     -11.989 -14.442  -1.161  0.00  0.00     0.272 C 
ENDROOT
BRANCH   1   4
ATOM      4  C16 ZIN AC000      -9.900 -14.420   0.019  0.00  0.00     0.236 C 
BRANCH   4   5
ATOM      5  C15 ZIN AC000      -9.921 -12.890   0.028  0.00  0.00     0.028 C 
BRANCH   5   6
ATOM      6  C14 ZIN AC000      -8.486 -12.361   0.017  0.00  0.00     0.002 C 
BRANCH   6   7
ATOM      7  C13 ZIN AC000      -8.507 -10.831   0.025  0.00  0.00     0.000 C 
BRANCH   7   8
ATOM      8  C12 ZIN AC000      -7.071 -10.301   0.014  0.00  0.00     0.000 C 
BRANCH   8   9
ATOM      9  C11 ZIN AC000      -7.092  -8.771   0.023  0.00  0.00     0.000 C 
BRANCH   9  10
ATOM     10  C10 ZIN AC000      -5.657  -8.242   0.012  0.00  0.00     0.000 C 
BRANCH  10  11
ATOM     11  C9  ZIN AC000      -5.677  -6.712   0.020  0.00  0.00     0.000 C 
BRANCH  11  12
ATOM     12  C8  ZIN AC000      -4.242  -6.182   0.009  0.00  0.00     0.000 C 
BRANCH  12  13
ATOM     13  C7  ZIN AC000      -4.263  -4.652   0.018  0.00  0.00     0.000 C 
BRANCH  13  14
ATOM     14  C6  ZIN AC000      -2.827  -4.123   0.007  0.00  0.00     0.000 C 
BRANCH  14  15
ATOM     15  C5  ZIN AC000      -2.848  -2.593   0.015  0.00  0.00     0.000 C 
BRANCH  15  16
ATOM     16  C4  ZIN AC000      -1.413  -2.063   0.004  0.00  0.00     0.000 C 
BRANCH  16  17
ATOM     17  C3  ZIN AC000      -1.433  -0.534   0.013  0.00  0.00    -0.000 C 
BRANCH  17  18
ATOM     18  C2  ZIN AC000       0.002  -0.004   0.002  0.00  0.00    -0.005 C 
ATOM     19  C1  ZIN AC000      -0.019   1.526   0.010  0.00  0.00     0.005 C 
ENDBRANCH  17  18
ENDBRANCH  16  17
ENDBRANCH  15  16
ENDBRANCH  14  15
ENDBRANCH  13  14
ENDBRANCH  12  13
ENDBRANCH  11  12
ENDBRANCH  10  11
ENDBRANCH   9  10
ENDBRANCH   8   9
ENDBRANCH   7   8
ENDBRANCH   6   7
ENDBRANCH   5   6
ENDBRANCH   4   5
ENDBRANCH   1   4
BRANCH   1  20
ATOM     20  C20 ZIN AC000     -11.259 -16.397   0.021  0.00  0.00     0.257 C 
BRANCH  20  21
ATOM     21  C21 ZIN AC000     -12.694 -16.927   0.032  0.00  0.00     0.169 C 
BRANCH  21  22
ATOM     22  N22 ZIN AC000     -12.674 -18.392   0.024  0.00  0.00    -0.208 N 
BRANCH  22  23
ATOM     23  C23 ZIN AC000     -12.652 -19.131   1.289  0.00  0.00     0.180 C 
BRANCH  23  24
ATOM     24  C24 ZIN AC000     -14.065 -19.404   1.736  0.00  0.00    -0.040 A 
ATOM     25  C31 ZIN AC000     -14.704 -20.563   1.336  0.00  0.00     0.011 A 
ATOM     26  C30 ZIN AC000     -15.998 -20.818   1.748  0.00  0.00     0.037 A 
ATOM     27  C27 ZIN AC000     -16.659 -19.904   2.556  0.00  0.00     0.068 A 
ATOM     28  C26 ZIN AC000     -16.018 -18.739   2.952  0.00  0.00     0.037 A 
ATOM     29  C25 ZIN AC000     -14.723 -18.492   2.541  0.00  0.00     0.011 A 
BRANCH  27  30
ATOM     30  O28 ZIN AC000     -17.934 -20.150   2.959  0.00  0.00    -0.356 OA
ATOM     31  C29 ZIN AC000     -18.531 -21.369   2.514  0.00  0.00     0.210 C 
ENDBRANCH  27  30
ENDBRANCH  23  24
ENDBRANCH  22  23
BRANCH  22  32
ATOM     32  C32 ZIN AC000     -12.676 -19.077  -1.178  0.00  0.00     0.724 A 
ATOM     33  N37 ZIN AC000     -12.658 -20.402  -1.167  0.00  0.00    -0.075 NA
ATOM     34  C36 ZIN AC000     -12.664 -21.087  -2.299  0.00  0.00     0.138 A 
ATOM     35  C35 ZIN AC000     -12.679 -20.403  -3.504  0.00  0.00     0.040 A 
ATOM     36  C34 ZIN AC000     -12.693 -19.017  -3.479  0.00  0.00     0.138 A 
ATOM     37  N33 ZIN AC000     -12.691 -18.393  -2.313  0.00  0.00    -0.075 NA
ENDBRANCH  22  32
ENDBRANCH  21  22
ENDBRANCH  20  21
ENDBRANCH   1  20
TORSDOF 22
