REMARK  4 active torsions:
REMARK  status: ('A' for Active; 'I' for Inactive)
REMARK    1  A    between atoms: C2_2  and  C3_3 
REMARK       I    between atoms: C3_3  and  N5_5 
REMARK    2  A    between atoms: N5_5  and  C6_6 
REMARK    3  A    between atoms: C6_6  and  C7_7 
REMARK    4  A    between atoms: C7_7  and  C8_8 
ROOT
ATOM      1  C8  ZIN AC000       2.343  -4.350   3.846  0.00  0.00     0.021 C 
ATOM      2  C10 ZIN AC000       3.842  -3.991   3.759  0.00  0.00     0.014 C 
ATOM      3  C11 ZIN AC000       4.447  -5.250   3.102  0.00  0.00     0.040 C 
ATOM      4  C12 ZIN AC000       3.510  -6.379   3.474  0.00  0.00    -0.051 A 
ATOM      5  C13 ZIN AC000       3.698  -7.750   3.443  0.00  0.00     0.010 A 
ATOM      6  C14 ZIN AC000       2.688  -8.605   3.831  0.00  0.00     0.038 A 
ATOM      7  C15 ZIN AC000       1.465  -8.094   4.259  0.00  0.00     0.075 A 
ATOM      8  O16 ZIN AC000       0.340  -8.745   4.663  0.00  0.00    -0.350 OA
ATOM      9  C17 ZIN AC000      -0.493  -7.835   5.403  0.00  0.00     0.180 C 
ATOM     10  C18 ZIN AC000      -0.114  -6.460   4.804  0.00  0.00     0.068 C 
ATOM     11  C19 ZIN AC000       1.290  -6.717   4.292  0.00  0.00    -0.015 A 
ATOM     12  C20 ZIN AC000       2.298  -5.862   3.903  0.00  0.00    -0.038 A 
ENDROOT
BRANCH   1  13
ATOM     13  C7  ZIN AC000       1.603  -3.843   2.606  0.00  0.00     0.029 C 
BRANCH  13  14
ATOM     14  C6  ZIN AC000       1.583  -2.313   2.615  0.00  0.00     0.123 C 
BRANCH  14  15
ATOM     15  N5  ZIN AC000       0.874  -1.828   1.428  0.00  0.00    -0.361 N 
ATOM     16  C3  ZIN AC000       0.731  -0.503   1.223  0.00  0.00     0.217 C 
ATOM     17  O4  ZIN AC000       1.189   0.287   2.021  0.00  0.00    -0.274 OA
ATOM     18  H26 ZIN AC000       0.508  -2.459   0.789  0.00  0.00     0.162 HD
BRANCH  16  19
ATOM     19  C2  ZIN AC000       0.002  -0.004   0.002  0.00  0.00     0.098 C 
ATOM     20  C1  ZIN AC000      -0.019   1.526   0.010  0.00  0.00     0.014 C 
ENDBRANCH  16  19
ENDBRANCH  14  15
ENDBRANCH  13  14
ENDBRANCH   1  13
TORSDOF 4
