REMARK  1 active torsions:
REMARK  status: ('A' for Active; 'I' for Inactive)
REMARK    1  A    between atoms: C2_2  and  C4_4 
ROOT
ATOM      1  C4  ZIN AC000      -1.302   1.939   0.019  0.00  0.00     0.040 A 
ATOM      2  C5  ZIN AC000      -1.325   3.336   0.021  0.00  0.00     0.018 A 
ATOM      3  C6  ZIN AC000      -2.532   4.003   0.029  0.00  0.00     0.001 A 
ATOM      4  C7  ZIN AC000      -3.719   3.291   0.037  0.00  0.00     0.000 A 
ATOM      5  C8  ZIN AC000      -3.704   1.907   0.035  0.00  0.00     0.001 A 
ATOM      6  C9  ZIN AC000      -2.505   1.227   0.021  0.00  0.00     0.018 A 
ENDROOT
BRANCH   1   7
ATOM      7  C2  ZIN AC000      -0.015   1.219   0.009  0.00  0.00     0.209 C 
ATOM      8  O1  ZIN AC000       0.002  -0.004   0.002  0.00  0.00    -0.644 OA
ATOM      9  O3  ZIN AC000       1.036   1.845   0.002  0.00  0.00    -0.644 OA
ENDBRANCH   1   7
TORSDOF 1
