REMARK  6 active torsions:
REMARK  status: ('A' for Active; 'I' for Inactive)
REMARK    1  A    between atoms: C3_3  and  C4_4 
REMARK    2  A    between atoms: C4_4  and  C5_5 
REMARK    3  A    between atoms: C5_5  and  O6_6 
REMARK    4  A    between atoms: N9_9  and  C10_10 
REMARK    5  A    between atoms: C10_10  and  C11_11 
REMARK    6  A    between atoms: C17_17  and  N18_18 
ROOT
ATOM      1  C10 <0> d           0.232  -0.089   2.418  0.00  0.00     0.172 C 
ENDROOT
BRANCH   1   2
ATOM      2  N9  <0> d           0.136  -0.907   1.206  0.00  0.00    -0.349 N 
ATOM      3  C2  <0> d          -0.086  -0.364   0.026  0.00  0.00     0.021 A 
ATOM      4  C1  <0> d          -0.250   1.121  -0.170  0.00  0.00     0.069 C 
ATOM      5  C3  <0> d          -0.148  -1.238  -0.983  0.00  0.00     0.008 A 
ATOM      6  S7  <0> d           0.094  -2.852  -0.319  0.00  0.00    -0.087 SA
ATOM      7  C8  <0> d           0.254  -2.191   1.250  0.00  0.00     0.141 A 
BRANCH   5   8
ATOM      8  C4  <0> d          -0.383  -0.902  -2.433  0.00  0.00     0.074 C 
BRANCH   8   9
ATOM      9  C5  <0> d           0.961  -0.657  -3.124  0.00  0.00     0.169 C 
BRANCH   9  10
ATOM     10  O6  <0> d           0.738  -0.339  -4.499  0.00  0.00    -0.401 OA
ATOM     11  H26 <0> d           1.548  -0.171  -5.000  0.00  0.00     0.209 HD
ENDBRANCH   9  10
ENDBRANCH   8   9
ENDBRANCH   5   8
ENDBRANCH   1   2
BRANCH   1  12
ATOM     12  C11 <0> d          -1.144   0.114   2.998  0.00  0.00     0.023 A 
ATOM     13  C17 <0> d          -1.740  -0.871   3.788  0.00  0.00     0.132 A 
ATOM     14  N16 <0> d          -2.954  -0.650   4.284  0.00  0.00    -0.216 NA
ATOM     15  C14 <0> d          -3.590   0.475   4.028  0.00  0.00     0.124 A 
ATOM     16  N13 <0> d          -3.057   1.421   3.283  0.00  0.00    -0.245 NA
ATOM     17  C15 <0> d          -4.967   0.685   4.604  0.00  0.00     0.093 C 
ATOM     18  C12 <0> d          -1.849   1.277   2.757  0.00  0.00     0.131 A 
BRANCH  13  19
ATOM     19  N18 <0> d          -1.074  -2.055   4.059  0.00  0.00    -0.383 N 
ATOM     20  H34 <0> d          -1.492  -2.731   4.615  0.00  0.00     0.157 HD
ATOM     21  H35 <0> d          -0.189  -2.208   3.693  0.00  0.00     0.157 HD
ENDBRANCH  13  19
ENDBRANCH   1  12
TORSDOF 6
