REMARK  7 active torsions:
REMARK  status: ('A' for Active; 'I' for Inactive)
REMARK    1  A    between atoms: N2_2  and  C5_5 
REMARK    2  A    between atoms: C5_5  and  C6_6 
REMARK    3  A    between atoms: C6_6  and  C7_7 
REMARK    4  A    between atoms: C7_7  and  O9_8 
REMARK    5  A    between atoms: C7_7  and  C20_19 
REMARK    6  A    between atoms: O9_8  and  C10_9 
REMARK    7  A    between atoms: C13_12  and  C14_13 
ROOT
ATOM      1  C7  ZIN AC000      -2.789  -2.566   0.014  0.00  0.00     0.163 C 
ENDROOT
BRANCH   1   2
ATOM      2  C6  ZIN AC000      -1.290  -2.274   0.109  0.00  0.00     0.065 C 
BRANCH   2   3
ATOM      3  C5  ZIN AC000      -1.073  -0.767   0.254  0.00  0.00     0.234 C 
BRANCH   3   4
ATOM      4  N2  ZIN AC000       0.367  -0.486   0.345  0.00  0.00    -0.079 N 
ATOM      5  C1  ZIN AC000       0.576   0.961   0.485  0.00  0.00     0.266 C 
ATOM      6  H3  ZIN AC000       0.827  -0.814  -0.491  0.00  0.00     0.276 HD
ATOM      7  H4  ZIN AC000       0.751  -0.961   1.149  0.00  0.00     0.276 HD
ENDBRANCH   3   4
ENDBRANCH   2   3
ENDBRANCH   1   2
BRANCH   1   8
ATOM      8  O9  ZIN AC000      -3.423  -2.209   1.244  0.00  0.00    -0.341 OA
BRANCH   8   9
ATOM      9  C10 ZIN AC000      -4.748  -1.914   1.192  0.00  0.00     0.069 A 
ATOM     10  C19 ZIN AC000      -5.450  -2.071   0.006  0.00  0.00     0.037 A 
ATOM     11  C18 ZIN AC000      -6.798  -1.775  -0.043  0.00  0.00     0.019 A 
ATOM     12  C13 ZIN AC000      -7.447  -1.312   1.087  0.00  0.00     0.048 A 
ATOM     13  C12 ZIN AC000      -6.749  -1.148   2.269  0.00  0.00     0.019 A 
ATOM     14  C11 ZIN AC000      -5.401  -1.448   2.325  0.00  0.00     0.037 A 
BRANCH  12  15
ATOM     15  C14 ZIN AC000      -8.916  -0.984   1.029  0.00  0.00     0.417 C 
ATOM     16  F15 ZIN AC000      -9.081   0.358   0.669  0.00  0.00    -0.166 F 
ATOM     17  F16 ZIN AC000      -9.540  -1.801   0.081  0.00  0.00    -0.166 F 
ATOM     18  F17 ZIN AC000      -9.492  -1.204   2.285  0.00  0.00    -0.166 F 
ENDBRANCH  12  15
ENDBRANCH   8   9
ENDBRANCH   1   8
BRANCH   1  19
ATOM     19  C20 ZIN AC000      -2.999  -4.034  -0.252  0.00  0.00    -0.029 A 
ATOM     20  C25 ZIN AC000      -3.165  -4.485  -1.548  0.00  0.00     0.010 A 
ATOM     21  C24 ZIN AC000      -3.353  -5.833  -1.792  0.00  0.00     0.001 A 
ATOM     22  C23 ZIN AC000      -3.385  -6.728  -0.740  0.00  0.00     0.000 A 
ATOM     23  C22 ZIN AC000      -3.225  -6.277   0.557  0.00  0.00     0.001 A 
ATOM     24  C21 ZIN AC000      -3.032  -4.930   0.801  0.00  0.00     0.010 A 
ENDBRANCH   1  19
TORSDOF 7
