REMARK  2 active torsions:
REMARK  status: ('A' for Active; 'I' for Inactive)
REMARK    1  A    between atoms: N1_1  and  C5_5 
REMARK    2  A    between atoms: C8_7  and  C10_8 
ROOT
ATOM      1  C5  <0> d          -0.699   1.479   1.216  0.00  0.00     0.192 A 
ATOM      2  C7  <0> d          -1.412   0.435   2.078  0.00  0.00     0.045 A 
ATOM      3  C8  <0> d          -0.110   1.073   2.569  0.00  0.00     0.051 A 
ENDROOT
BRANCH   3   4
ATOM      4  C10 <0> d          -0.205   2.069   3.696  0.00  0.00    -0.052 A 
ATOM      5  C15 <0> d           0.946   2.542   4.299  0.00  0.00     0.007 A 
ATOM      6  C14 <0> d           0.859   3.458   5.330  0.00  0.00     0.001 A 
ATOM      7  C13 <0> d          -0.379   3.895   5.765  0.00  0.00     0.000 A 
ATOM      8  C12 <0> d          -1.529   3.417   5.166  0.00  0.00     0.001 A 
ATOM      9  C11 <0> d          -1.442   2.504   4.131  0.00  0.00     0.007 A 
ENDBRANCH   3   4
BRANCH   1  10
ATOM     10  N1  <0> d          -0.012   1.005   0.008  0.00  0.00    -0.074 N 
ATOM     11  H2  <0> d           0.002  -0.004   0.002  0.00  0.00     0.274 HD
ATOM     12  H3  <0> d           0.935   1.354   0.000  0.00  0.00     0.274 HD
ATOM     13  H4  <0> d          -0.500   1.339  -0.810  0.00  0.00     0.274 HD
ENDBRANCH   1  10
TORSDOF 2
