REMARK  1 active torsions:
REMARK  status: ('A' for Active; 'I' for Inactive)
REMARK    1  A    between atoms: C2_2  and  C4_4 
ROOT
ATOM      1  C4  <0> d          -1.093  -0.377  -0.055  0.00  0.00     0.063 C 
ATOM      2  C6  <0> d          -1.524  -0.365  -1.543  0.00  0.00     0.013 C 
ATOM      3  C7  <0> d          -1.738  -1.849  -1.949  0.00  0.00     0.006 C 
ATOM      4  C8  <0> d          -2.025  -2.533  -0.608  0.00  0.00    -0.001 C 
ATOM      5  C10 <0> d          -1.776  -4.030  -0.564  0.00  0.00    -0.004 C 
ATOM      6  C12 <0> d          -2.736  -4.742  -1.521  0.00  0.00     0.010 C 
ATOM      7  C13 <0> d          -2.426  -6.241  -1.520  0.00  0.00     0.035 C 
ATOM      8  C14 <0> d          -2.494  -6.752  -0.092  0.00  0.00    -0.068 C 
ATOM      9  C15 <0> d          -3.204  -7.857   0.137  0.00  0.00     0.053 C 
ATOM     10  C16 <0> d          -3.291  -8.406   1.494  0.00  0.00     0.149 C 
ATOM     11  O17 <0> d          -4.191  -9.148   1.827  0.00  0.00    -0.293 OA
ATOM     12  C18 <0> d          -2.197  -7.996   2.461  0.00  0.00     0.084 C 
ATOM     13  C19 <0> d          -2.068  -6.475   2.387  0.00  0.00     0.022 C 
ATOM     14  C20 <0> d          -1.757  -6.005   0.977  0.00  0.00    -0.016 C 
ATOM     15  C21 <0> d          -0.258  -6.190   0.736  0.00  0.00     0.020 C 
ATOM     16  C22 <0> d          -2.039  -4.502   0.873  0.00  0.00     0.002 C 
ATOM     17  C24 <0> d          -1.179  -3.761   1.892  0.00  0.00     0.007 C 
ATOM     18  C25 <0> d          -1.323  -2.237   1.758  0.00  0.00     0.011 C 
ATOM     19  C26 <0> d          -0.987  -1.850   0.325  0.00  0.00    -0.030 C 
ATOM     20  C27 <0> d           0.397  -2.386  -0.046  0.00  0.00     0.016 C 
ENDROOT
BRANCH   1  21
ATOM     21  C2  <0> d           0.242   0.302   0.107  0.00  0.00     0.128 C 
ATOM     22  C1  <0> d           0.644   0.866   1.446  0.00  0.00     0.091 C 
ATOM     23  O3  <0> d           0.991   0.395  -0.836  0.00  0.00    -0.298 OA
ENDBRANCH   1  21
TORSDOF 1
