REMARK  16 active torsions:
REMARK  status: ('A' for Active; 'I' for Inactive)
REMARK    1  A    between atoms: C5_5  and  C6_6 
REMARK    2  A    between atoms: C7_7  and  C8_8 
REMARK    3  A    between atoms: C8_8  and  C9_9 
REMARK    4  A    between atoms: C9_9  and  C10_10 
REMARK    5  A    between atoms: C10_10  and  C11_11 
REMARK    6  A    between atoms: C11_11  and  C12_12 
REMARK    7  A    between atoms: N13_13  and  C14_14 
REMARK    8  A    between atoms: C14_14  and  C15_15 
REMARK    9  A    between atoms: C15_15  and  C16_16 
REMARK   10  A    between atoms: C16_16  and  C17_17 
REMARK   11  A    between atoms: C17_17  and  S18_18 
REMARK   12  A    between atoms: N35_35  and  C36_36 
REMARK   13  A    between atoms: C36_36  and  C37_37 
REMARK   14  A    between atoms: C37_37  and  C38_38 
REMARK   15  A    between atoms: C38_38  and  C39_39 
REMARK   16  A    between atoms: C39_39  and  S40_40 
ROOT
ATOM      1  C8  ZIN AC000       2.184  -1.603  -5.629  0.00  0.00     0.000 C 
ENDROOT
BRANCH   1   2
ATOM      2  C7  ZIN AC000       1.292  -1.029  -4.750  0.00  0.00     0.000 C 
ATOM      3  C6  ZIN AC000       1.478  -1.173  -3.370  0.00  0.00     0.002 C 
BRANCH   3   4
ATOM      4  C5  ZIN AC000       0.586  -0.599  -2.492  0.00  0.00     0.026 C 
ATOM      5  C4  ZIN AC000       0.828  -0.654  -1.112  0.00  0.00     0.024 A 
ATOM      6  C2  ZIN AC000       1.989  -1.349  -0.429  0.00  0.00     0.025 A 
ATOM      7  N35 ZIN AC000       0.094  -0.114  -0.173  0.00  0.00    -0.349 N 
ATOM      8  C1  ZIN AC000       1.962  -2.852  -0.714  0.00  0.00     0.027 C 
ATOM      9  C53 ZIN AC000       1.736  -1.079   1.036  0.00  0.00    -0.006 A 
ATOM     10  C3  ZIN AC000       3.322  -0.741  -0.869  0.00  0.00     0.027 C 
ATOM     11  C44 ZIN AC000       0.569  -0.326   1.084  0.00  0.00     0.043 A 
ATOM     12  C52 ZIN AC000       2.408  -1.425   2.209  0.00  0.00    -0.016 A 
ATOM     13  C45 ZIN AC000       0.066   0.089   2.339  0.00  0.00     0.031 A 
ATOM     14  C46 ZIN AC000       0.703  -0.237   3.490  0.00  0.00     0.014 A 
ATOM     15  C47 ZIN AC000       1.886  -0.998   3.459  0.00  0.00    -0.025 A 
ATOM     16  C48 ZIN AC000       2.560  -1.345   4.641  0.00  0.00     0.012 A 
ATOM     17  C49 ZIN AC000       3.702  -2.083   4.575  0.00  0.00     0.001 A 
ATOM     18  C50 ZIN AC000       4.216  -2.502   3.349  0.00  0.00     0.001 A 
ATOM     19  C51 ZIN AC000       3.591  -2.186   2.183  0.00  0.00     0.013 A 
BRANCH   7  20
ATOM     20  C36 ZIN AC000      -1.125   0.650  -0.449  0.00  0.00     0.129 C 
BRANCH  20  21
ATOM     21  C37 ZIN AC000      -2.334  -0.098   0.118  0.00  0.00     0.021 C 
BRANCH  21  22
ATOM     22  C38 ZIN AC000      -3.608   0.699  -0.171  0.00  0.00     0.019 C 
BRANCH  22  23
ATOM     23  C39 ZIN AC000      -4.816  -0.048   0.396  0.00  0.00     0.165 C 
BRANCH  23  24
ATOM     24  S40 ZIN AC000      -6.327   0.896   0.053  0.00  0.00     0.101 S 
ATOM     25  O41 ZIN AC000      -7.466   0.174   0.598  0.00  0.00    -0.595 OA
ATOM     26  O42 ZIN AC000      -6.215   2.203   0.683  0.00  0.00    -0.595 OA
ATOM     27  O43 ZIN AC000      -6.470   1.046  -1.387  0.00  0.00    -0.595 OA
ENDBRANCH  23  24
ENDBRANCH  22  23
ENDBRANCH  21  22
ENDBRANCH  20  21
ENDBRANCH   7  20
ENDBRANCH   3   4
ENDBRANCH   1   2
BRANCH   1  28
ATOM     28  C9  ZIN AC000       3.277  -2.331  -5.142  0.00  0.00     0.000 C 
BRANCH  28  29
ATOM     29  C10 ZIN AC000       4.161  -2.899  -6.013  0.00  0.00     0.002 C 
BRANCH  29  30
ATOM     30  C11 ZIN AC000       3.974  -2.754  -7.399  0.00  0.00     0.026 C 
BRANCH  30  31
ATOM     31  C12 ZIN AC000       4.851  -3.318  -8.263  0.00  0.00     0.024 A 
ATOM     32  C32 ZIN AC000       6.077  -4.132  -7.906  0.00  0.00     0.025 A 
ATOM     33  C31 ZIN AC000       6.672  -4.507  -9.243  0.00  0.00    -0.006 A 
ATOM     34  C33 ZIN AC000       7.065  -3.289  -7.097  0.00  0.00     0.027 C 
ATOM     35  C34 ZIN AC000       5.677  -5.386  -7.126  0.00  0.00     0.027 C 
ATOM     36  C22 ZIN AC000       5.865  -3.951 -10.213  0.00  0.00     0.043 A 
ATOM     37  C30 ZIN AC000       7.803  -5.251  -9.601  0.00  0.00    -0.016 A 
ATOM     38  N13 ZIN AC000       4.805  -3.260  -9.629  0.00  0.00    -0.349 N 
ATOM     39  C23 ZIN AC000       6.186  -4.136 -11.571  0.00  0.00     0.031 A 
ATOM     40  C24 ZIN AC000       7.276  -4.851 -11.946  0.00  0.00     0.014 A 
ATOM     41  C25 ZIN AC000       8.112  -5.427 -10.974  0.00  0.00    -0.025 A 
ATOM     42  C26 ZIN AC000       9.246  -6.173 -11.335  0.00  0.00     0.012 A 
ATOM     43  C27 ZIN AC000      10.033  -6.715 -10.365  0.00  0.00     0.001 A 
ATOM     44  C28 ZIN AC000       9.730  -6.543  -9.015  0.00  0.00     0.001 A 
ATOM     45  C29 ZIN AC000       8.639  -5.827  -8.628  0.00  0.00     0.013 A 
BRANCH  38  46
ATOM     46  C14 ZIN AC000       3.768  -2.555 -10.386  0.00  0.00     0.129 C 
BRANCH  46  47
ATOM     47  C15 ZIN AC000       4.205  -1.108 -10.625  0.00  0.00     0.021 C 
BRANCH  47  48
ATOM     48  C16 ZIN AC000       3.122  -0.372 -11.416  0.00  0.00     0.019 C 
BRANCH  48  49
ATOM     49  C17 ZIN AC000       3.559   1.074 -11.655  0.00  0.00     0.165 C 
BRANCH  49  50
ATOM     50  S18 ZIN AC000       2.275   1.947 -12.593  0.00  0.00     0.101 S 
ATOM     51  O19 ZIN AC000       2.705   3.320 -12.812  0.00  0.00    -0.595 OA
ATOM     52  O20 ZIN AC000       2.086   1.273 -13.868  0.00  0.00    -0.595 OA
ATOM     53  O21 ZIN AC000       1.039   1.926 -11.827  0.00  0.00    -0.595 OA
ENDBRANCH  49  50
ENDBRANCH  48  49
ENDBRANCH  47  48
ENDBRANCH  46  47
ENDBRANCH  38  46
ENDBRANCH  30  31
ENDBRANCH  29  30
ENDBRANCH  28  29
ENDBRANCH   1  28
TORSDOF 16
