REMARK  4 active torsions:
REMARK  status: ('A' for Active; 'I' for Inactive)
REMARK    1  A    between atoms: C9_8  and  C10_9 
REMARK    2  A    between atoms: C10_9  and  O11_10 
REMARK    3  A    between atoms: O11_10  and  S12_11 
REMARK    4  A    between atoms: S12_11  and  N13_12 
ROOT
ATOM      1  C1  ZIN AC000      -0.486   0.957  -0.369  0.00  0.00     0.078 C 
ATOM      2  C2  ZIN AC000      -0.289  -0.560  -0.381  0.00  0.00     0.158 C 
ATOM      3  C3  ZIN AC000      -1.649  -1.251  -0.486  0.00  0.00     0.078 C 
ATOM      4  O4  ZIN AC000       0.522  -0.928  -1.502  0.00  0.00    -0.346 OA
ATOM      5  C5  ZIN AC000       1.691  -1.593  -0.991  0.00  0.00     0.180 C 
ATOM      6  C7  ZIN AC000       2.008  -2.811  -1.832  0.00  0.00     0.206 C 
ATOM      7  O8  ZIN AC000       1.031  -3.817  -1.661  0.00  0.00    -0.348 OA
ATOM      8  C9  ZIN AC000       0.818  -4.314  -0.367  0.00  0.00     0.219 C 
ATOM      9  O16 ZIN AC000       1.794  -5.322  -0.039  0.00  0.00    -0.315 OA
ATOM     10  C17 ZIN AC000       1.951  -5.255   1.387  0.00  0.00     0.161 C 
ATOM     11  C18 ZIN AC000       0.973  -6.218   2.062  0.00  0.00     0.078 C 
ATOM     12  C19 ZIN AC000       3.386  -5.624   1.767  0.00  0.00     0.078 C 
ATOM     13  O20 ZIN AC000       1.670  -3.910   1.797  0.00  0.00    -0.342 OA
ATOM     14  C21 ZIN AC000       0.882  -3.306   0.756  0.00  0.00     0.221 C 
ATOM     15  C23 ZIN AC000       1.353  -1.942   0.447  0.00  0.00     0.191 C 
ATOM     16  O25 ZIN AC000       0.363  -0.967   0.829  0.00  0.00    -0.345 OA
ENDROOT
BRANCH   8  17
ATOM     17  C10 ZIN AC000      -0.557  -4.982  -0.330  0.00  0.00     0.263 C 
BRANCH  17  18
ATOM     18  O11 ZIN AC000      -0.550  -6.135  -1.175  0.00  0.00    -0.254 OA
BRANCH  18  19
ATOM     19  S12 ZIN AC000      -1.875  -6.882  -1.215  0.00  0.00     0.355 S 
ATOM     20  O14 ZIN AC000      -1.635  -8.088  -1.927  0.00  0.00    -0.176 OA
ATOM     21  O15 ZIN AC000      -2.394  -6.849   0.107  0.00  0.00    -0.176 OA
BRANCH  19  22
ATOM     22  N13 ZIN AC000      -2.913  -5.989  -2.147  0.00  0.00    -0.306 N 
ATOM     23  H36 ZIN AC000      -2.615  -5.155  -2.543  0.00  0.00     0.171 HD
ATOM     24  H37 ZIN AC000      -3.820  -6.299  -2.296  0.00  0.00     0.171 HD
ENDBRANCH  19  22
ENDBRANCH  18  19
ENDBRANCH  17  18
ENDBRANCH   8  17
TORSDOF 4
