REMARK  4 active torsions:
REMARK  status: ('A' for Active; 'I' for Inactive)
REMARK    1  A    between atoms: C2_2  and  O3_3 
REMARK    2  A    between atoms: O3_3  and  C4_4 
REMARK    3  A    between atoms: C4_4  and  C6_6 
REMARK    4  A    between atoms: C9_9  and  N10_10 
ROOT
ATOM      1  C6  <0> d          -2.873  -2.427   0.017  0.00  0.00     0.039 A 
ATOM      2  C7  <0> d          -3.994  -1.591   0.026  0.00  0.00     0.020 A 
ATOM      3  C8  <0> d          -5.253  -2.136   0.035  0.00  0.00     0.030 A 
ATOM      4  C9  <0> d          -5.415  -3.519   0.035  0.00  0.00     0.025 A 
ATOM      5  C11 <0> d          -4.300  -4.353   0.026  0.00  0.00     0.030 A 
ATOM      6  C12 <0> d          -3.039  -3.815   0.011  0.00  0.00     0.020 A 
ENDROOT
BRANCH   1   7
ATOM      7  C4  <0> d          -1.519  -1.845   0.007  0.00  0.00     0.293 C 
ATOM      8  O5  <0> d          -0.545  -2.572  -0.006  0.00  0.00    -0.259 OA
BRANCH   7   9
ATOM      9  O3  <0> d          -1.360  -0.507   0.012  0.00  0.00    -0.318 OA
BRANCH   9  10
ATOM     10  C2  <0> d           0.002  -0.004   0.002  0.00  0.00     0.174 C 
ATOM     11  C1  <0> d          -0.019   1.526   0.010  0.00  0.00     0.034 C 
ENDBRANCH   9  10
ENDBRANCH   7   9
ENDBRANCH   1   7
BRANCH   4  12
ATOM     12  N10 <0> d          -6.692  -4.068   0.045  0.00  0.00    -0.399 N 
ATOM     13  H20 <0> d          -7.469  -3.487   0.052  0.00  0.00     0.156 HD
ATOM     14  H21 <0> d          -6.806  -5.031   0.045  0.00  0.00     0.156 HD
ENDBRANCH   4  12
TORSDOF 4
