REMARK  7 active torsions:
REMARK  status: ('A' for Active; 'I' for Inactive)
REMARK    1  A    between atoms: C2_2  and  N5_5 
REMARK    2  A    between atoms: N5_5  and  C8_8 
REMARK    3  A    between atoms: C8_8  and  C9_9 
REMARK    4  A    between atoms: C9_9  and  O11_10 
REMARK    5  A    between atoms: C9_9  and  C12_11 
REMARK    6  A    between atoms: C12_11  and  O13_12 
REMARK    7  A    between atoms: O13_12  and  C14_13 
ROOT
ATOM      1  C12 ZIN AC000       4.219   0.067  -2.487  0.00  0.00     0.209 C 
ENDROOT
BRANCH   1   2
ATOM      2  C9  ZIN AC000       2.784  -0.463  -2.476  0.00  0.00     0.168 C 
BRANCH   2   3
ATOM      3  C8  ZIN AC000       2.068   0.031  -1.217  0.00  0.00     0.267 C 
BRANCH   3   4
ATOM      4  N5  ZIN AC000       0.690  -0.478  -1.207  0.00  0.00    -0.065 N 
ATOM      5  H6  ZIN AC000       0.703  -1.487  -1.212  0.00  0.00     0.278 HD
ATOM      6  H7  ZIN AC000       0.202  -0.144  -2.024  0.00  0.00     0.278 HD
BRANCH   4   7
ATOM      7  C2  ZIN AC000       0.002  -0.004   0.002  0.00  0.00     0.115 C 
ATOM      8  C1  ZIN AC000      -0.019   1.526   0.010  0.00  0.00     0.045 C 
ATOM      9  C3  ZIN AC000       0.742  -0.511   1.242  0.00  0.00     0.045 C 
ATOM     10  C4  ZIN AC000      -1.433  -0.534   0.013  0.00  0.00     0.045 C 
ENDBRANCH   4   7
ENDBRANCH   3   4
ENDBRANCH   2   3
BRANCH   2  11
ATOM     11  O11 ZIN AC000       2.803  -1.892  -2.484  0.00  0.00    -0.392 OA
ATOM     12  H36 ZIN AC000       3.258  -2.283  -1.725  0.00  0.00     0.210 HD
ENDBRANCH   2  11
ENDBRANCH   1   2
BRANCH   1  13
ATOM     13  O13 ZIN AC000       4.852  -0.296  -3.716  0.00  0.00    -0.348 OA
BRANCH  13  14
ATOM     14  C14 ZIN AC000       6.140   0.101  -3.887  0.00  0.00     0.076 A 
ATOM     15  C19 ZIN AC000       6.812  -0.219  -5.059  0.00  0.00    -0.011 A 
ATOM     16  C18 ZIN AC000       8.131   0.203  -5.225  0.00  0.00     0.019 A 
ATOM     17  C20 ZIN AC000       6.098  -1.010  -6.121  0.00  0.00     0.043 C 
ATOM     18  C17 ZIN AC000       8.770   0.926  -4.213  0.00  0.00     0.016 A 
ATOM     19  C23 ZIN AC000       8.859  -0.113  -6.470  0.00  0.00     0.160 C 
ATOM     20  C16 ZIN AC000       8.092   1.229  -3.051  0.00  0.00     0.004 A 
ATOM     21  C15 ZIN AC000       6.781   0.819  -2.889  0.00  0.00     0.037 A 
ATOM     22  C22 ZIN AC000       8.228  -1.109  -7.420  0.00  0.00     0.084 C 
ATOM     23  O24 ZIN AC000       9.922   0.412  -6.725  0.00  0.00    -0.292 OA
ATOM     24  C21 ZIN AC000       6.729  -0.791  -7.493  0.00  0.00     0.012 C 
ENDBRANCH  13  14
ENDBRANCH   1  13
TORSDOF 7
