REMARK  5 active torsions:
REMARK  status: ('A' for Active; 'I' for Inactive)
REMARK    1  A    between atoms: C2_2  and  O4_3 
REMARK    2  A    between atoms: C2_2  and  C5_4 
REMARK    3  A    between atoms: C5_4  and  O7_5 
REMARK    4  A    between atoms: C5_4  and  C8_6 
REMARK    5  A    between atoms: C18_15  and  N19_16 
ROOT
ATOM      1  C8  <0> d           0.849  -2.021  -1.205  0.00  0.00     0.131 C 
ATOM      2  C10 <0> d           1.552  -2.525  -2.474  0.00  0.00     0.149 C 
ATOM      3  N11 <0> d           0.706  -2.201  -3.631  0.00  0.00    -0.370 N 
ATOM      4  C12 <0> d          -0.654  -2.461  -3.565  0.00  0.00     0.175 A 
ATOM      5  C13 <0> d          -1.257  -2.676  -2.334  0.00  0.00     0.146 A 
ATOM      6  N14 <0> d          -0.488  -2.634  -1.150  0.00  0.00    -0.373 N 
ATOM      7  C15 <0> d          -2.631  -2.934  -2.287  0.00  0.00     0.313 A 
ATOM      8  O16 <0> d          -3.194  -3.127  -1.219  0.00  0.00    -0.263 OA
ATOM      9  N17 <0> d          -3.322  -2.966  -3.447  0.00  0.00    -0.020 NA
ATOM     10  C18 <0> d          -2.684  -2.750  -4.629  0.00  0.00     0.725 A 
ATOM     11  N20 <0> d          -1.392  -2.507  -4.681  0.00  0.00    -0.043 NA
ATOM     12  H28 <0> d           1.094  -1.810  -4.430  0.00  0.00     0.161 HD
ATOM     13  H29 <0> d          -0.833  -3.000  -0.321  0.00  0.00     0.160 HD
ENDROOT
BRANCH   1  14
ATOM     14  C5  <0> d           0.718  -0.497  -1.257  0.00  0.00     0.170 C 
BRANCH  14  15
ATOM     15  C2  <0> d           0.002  -0.004   0.002  0.00  0.00     0.145 C 
ATOM     16  C1  <0> d          -0.019   1.526   0.010  0.00  0.00     0.042 C 
BRANCH  15  17
ATOM     17  O4  <0> d           0.693  -0.477   1.160  0.00  0.00    -0.393 OA
ATOM     18  H24 <0> d           1.611  -0.180   1.219  0.00  0.00     0.210 HD
ENDBRANCH  15  17
ENDBRANCH  14  15
BRANCH  14  19
ATOM     19  O7  <0> d           2.019   0.090  -1.326  0.00  0.00    -0.391 OA
ATOM     20  H25 <0> d           2.587  -0.122  -0.573  0.00  0.00     0.210 HD
ENDBRANCH  14  19
ENDBRANCH   1  14
BRANCH  10  21
ATOM     21  N19 <0> d          -3.405  -2.788  -5.796  0.00  0.00    -0.231 N 
ATOM     22  H30 <0> d          -4.358  -2.967  -5.771  0.00  0.00     0.174 HD
ATOM     23  H31 <0> d          -2.961  -2.637  -6.645  0.00  0.00     0.174 HD
ENDBRANCH  10  21
TORSDOF 5
