REMARK  2 active torsions:
REMARK  status: ('A' for Active; 'I' for Inactive)
REMARK    1  A    between atoms: C2_2  and  N5_5 
REMARK       I    between atoms: N5_5  and  C6_6 
REMARK    2  A    between atoms: C6_6  and  C8_8 
ROOT
ATOM      1  C8  ZIN AC000       2.708  -0.658  -2.563  0.00  0.00     0.086 C 
ATOM      2  C10 ZIN AC000       1.836  -0.230  -3.769  0.00  0.00     0.015 C 
ATOM      3  C11 ZIN AC000       2.750   0.623  -4.691  0.00  0.00     0.007 C 
ATOM      4  C12 ZIN AC000       4.156   0.138  -4.323  0.00  0.00    -0.001 C 
ATOM      5  C14 ZIN AC000       5.290   1.093  -4.641  0.00  0.00    -0.004 C 
ATOM      6  C16 ZIN AC000       5.382   1.332  -6.148  0.00  0.00     0.007 C 
ATOM      7  C17 ZIN AC000       6.570   2.248  -6.458  0.00  0.00     0.026 C 
ATOM      8  C18 ZIN AC000       7.853   1.586  -5.958  0.00  0.00     0.097 C 
ATOM      9  N20 ZIN AC000       9.019   2.418  -6.246  0.00  0.00    -0.352 N 
ATOM     10  C21 ZIN AC000      10.144   2.258  -5.515  0.00  0.00     0.241 C 
ATOM     11  O22 ZIN AC000      11.112   2.966  -5.716  0.00  0.00    -0.269 OA
ATOM     12  C23 ZIN AC000      10.189   1.218  -4.470  0.00  0.00     0.071 C 
ATOM     13  C24 ZIN AC000       9.043   0.779  -3.944  0.00  0.00    -0.009 C 
ATOM     14  C25 ZIN AC000       7.757   1.377  -4.445  0.00  0.00    -0.002 C 
ATOM     15  C26 ZIN AC000       7.504   2.706  -3.732  0.00  0.00     0.022 C 
ATOM     16  C27 ZIN AC000       6.588   0.446  -4.129  0.00  0.00     0.004 C 
ATOM     17  C29 ZIN AC000       6.529   0.164  -2.632  0.00  0.00     0.007 C 
ATOM     18  C30 ZIN AC000       5.300  -0.687  -2.270  0.00  0.00     0.011 C 
ATOM     19  C31 ZIN AC000       4.056   0.023  -2.776  0.00  0.00    -0.028 C 
ATOM     20  C32 ZIN AC000       4.012   1.448  -2.219  0.00  0.00     0.016 C 
ATOM     21  H51 ZIN AC000       8.986   3.079  -6.956  0.00  0.00     0.163 HD
ENDROOT
BRANCH   1  22
ATOM     22  C6  ZIN AC000       2.084  -0.188  -1.274  0.00  0.00     0.223 C 
ATOM     23  N5  ZIN AC000       0.744  -0.082  -1.175  0.00  0.00    -0.353 N 
ATOM     24  H42 ZIN AC000       0.182  -0.307  -1.932  0.00  0.00     0.163 HD
ATOM     25  O7  ZIN AC000       2.787   0.093  -0.327  0.00  0.00    -0.273 OA
BRANCH  23  26
ATOM     26  C2  ZIN AC000       0.137   0.375   0.078  0.00  0.00     0.022 C 
ATOM     27  C1  ZIN AC000       0.645   1.779   0.409  0.00  0.00     0.037 C 
ATOM     28  C3  ZIN AC000       0.516  -0.585   1.208  0.00  0.00     0.037 C 
ATOM     29  C4  ZIN AC000      -1.385   0.406  -0.074  0.00  0.00     0.037 C 
ENDBRANCH  23  26
ENDBRANCH   1  22
TORSDOF 2
