REMARK  5 active torsions:
REMARK  status: ('A' for Active; 'I' for Inactive)
REMARK    1  A    between atoms: N6_6  and  C7_7 
REMARK    2  A    between atoms: C10_9  and  O12_10 
REMARK    3  A    between atoms: C13_11  and  C15_12 
REMARK    4  A    between atoms: C15_12  and  O16_13 
REMARK    5  A    between atoms: C19_16  and  C20_17 
ROOT
ATOM      1  O1  ZIN AC000       0.002  -0.004   0.002  0.00  0.00    -0.265 OA
ATOM      2  C2  ZIN AC000      -0.014   1.214   0.009  0.00  0.00     0.287 A 
ATOM      3  N3  ZIN AC000      -1.188   1.878   0.029  0.00  0.00    -0.153 NA
ATOM      4  C4  ZIN AC000      -1.205   3.224   0.036  0.00  0.00     0.353 A 
ATOM      5  O5  ZIN AC000      -2.270   3.810   0.055  0.00  0.00    -0.244 OA
ATOM      6  N6  ZIN AC000      -0.060   3.930   0.024  0.00  0.00    -0.280 N 
ATOM      7  C18 ZIN AC000       1.151   3.294   0.004  0.00  0.00     0.120 A 
ATOM      8  C19 ZIN AC000       1.198   1.945   0.001  0.00  0.00     0.133 A 
ENDROOT
BRANCH   6   9
ATOM      9  C7  ZIN AC000      -0.110   5.394   0.033  0.00  0.00     0.235 C 
ATOM     10  O17 ZIN AC000      -0.945   5.862   1.115  0.00  0.00    -0.356 OA
ATOM     11  C13 ZIN AC000      -1.326   7.207   0.747  0.00  0.00     0.176 C 
ATOM     12  C10 ZIN AC000      -1.612   7.136  -0.769  0.00  0.00     0.153 C 
ATOM     13  C9  ZIN AC000      -0.794   5.917  -1.250  0.00  0.00     0.088 C 
BRANCH  11  14
ATOM     14  C15 ZIN AC000      -2.583   7.634   1.507  0.00  0.00     0.198 C 
BRANCH  14  15
ATOM     15  O16 ZIN AC000      -2.268   7.806   2.890  0.00  0.00    -0.398 OA
ATOM     16  H29 ZIN AC000      -3.019   8.078   3.434  0.00  0.00     0.209 HD
ENDBRANCH  14  15
ENDBRANCH  11  14
BRANCH  12  17
ATOM     17  O12 ZIN AC000      -1.166   8.327  -1.422  0.00  0.00    -0.393 OA
ATOM     18  H26 ZIN AC000      -1.268   8.311  -2.383  0.00  0.00     0.210 HD
ENDBRANCH  12  17
ENDBRANCH   6   9
BRANCH   8  19
ATOM     19  C20 ZIN AC000       2.523   1.226  -0.021  0.00  0.00     0.424 C 
ATOM     20  F21 ZIN AC000       2.898   0.901   1.287  0.00  0.00    -0.166 F 
ATOM     21  F22 ZIN AC000       2.406   0.055  -0.777  0.00  0.00    -0.166 F 
ATOM     22  F23 ZIN AC000       3.494   2.056  -0.592  0.00  0.00    -0.166 F 
ENDBRANCH   8  19
TORSDOF 5
