REMARK  8 active torsions:
REMARK  status: ('A' for Active; 'I' for Inactive)
REMARK    1  A    between atoms: C2_2  and  N3_3 
REMARK    2  A    between atoms: N3_3  and  C6_6 
REMARK    3  A    between atoms: N9_8  and  C10_9 
REMARK    4  A    between atoms: C10_9  and  C11_10 
REMARK    5  A    between atoms: C11_10  and  C12_11 
REMARK    6  A    between atoms: C12_11  and  O13_12 
REMARK    7  A    between atoms: C21_20  and  S22_21 
REMARK    8  A    between atoms: S22_21  and  N23_22 
ROOT
ATOM      1  C6  <0> d           0.617  -1.943  -1.137  0.00  0.00     0.239 C 
ATOM      2  C8  <0> d           1.231  -2.528  -2.401  0.00  0.00     0.173 C 
ATOM      3  N9  <0> d           1.236  -4.001  -2.341  0.00  0.00    -0.304 N 
ATOM      4  S15 <0> d           2.223  -4.671  -1.168  0.00  0.00     0.268 S 
ATOM      5  O16 <0> d           1.639  -5.911  -0.791  0.00  0.00    -0.200 OA
ATOM      6  O17 <0> d           3.562  -4.537  -1.623  0.00  0.00    -0.200 OA
ATOM      7  C18 <0> d           2.023  -3.564   0.203  0.00  0.00     0.130 A 
ATOM      8  C19 <0> d           1.329  -2.412   0.119  0.00  0.00     0.006 A 
ATOM      9  C20 <0> d           1.323  -1.695   1.315  0.00  0.00     0.044 A 
ATOM     10  C21 <0> d           1.972  -2.252   2.332  0.00  0.00     0.121 A 
ATOM     11  S26 <0> d           2.671  -3.781   1.817  0.00  0.00    -0.062 SA
ENDROOT
BRANCH  10  12
ATOM     12  S22 <0> d           2.114  -1.563   3.947  0.00  0.00     0.263 S 
ATOM     13  O24 <0> d           3.278  -2.135   4.527  0.00  0.00    -0.200 OA
ATOM     14  O25 <0> d           1.924  -0.162   3.804  0.00  0.00    -0.200 OA
BRANCH  12  15
ATOM     15  N23 <0> d           0.829  -2.121   4.832  0.00  0.00    -0.324 N 
ATOM     16  H44 <0> d           0.917  -2.242   5.790  0.00  0.00     0.169 HD
ATOM     17  H45 <0> d          -0.010  -2.326   4.392  0.00  0.00     0.169 HD
ENDBRANCH  12  15
ENDBRANCH  10  12
BRANCH   1  18
ATOM     18  N3  <0> d           0.690  -0.478  -1.207  0.00  0.00    -0.066 N 
ATOM     19  H4  <0> d           1.650  -0.194  -1.331  0.00  0.00     0.278 HD
ATOM     20  H5  <0> d           0.331  -0.082  -0.350  0.00  0.00     0.278 HD
BRANCH  18  21
ATOM     21  C2  <0> d          -0.113  -0.001  -2.341  0.00  0.00     0.228 C 
ATOM     22  C1  <0> d          -0.145   1.529  -2.336  0.00  0.00     0.034 C 
ENDBRANCH  18  21
ENDBRANCH   1  18
BRANCH   3  23
ATOM     23  C10 <0> d           0.432  -4.823  -3.248  0.00  0.00     0.137 C 
BRANCH  23  24
ATOM     24  C11 <0> d           1.198  -5.039  -4.555  0.00  0.00     0.047 C 
BRANCH  24  25
ATOM     25  C12 <0> d           0.358  -5.897  -5.503  0.00  0.00     0.168 C 
BRANCH  25  26
ATOM     26  O13 <0> d           1.074  -6.099  -6.723  0.00  0.00    -0.396 OA
ATOM     27  C14 <0> d           0.374  -6.893  -7.683  0.00  0.00     0.201 C 
ENDBRANCH  25  26
ENDBRANCH  24  25
ENDBRANCH  23  24
ENDBRANCH   3  23
TORSDOF 8
