REMARK  3 active torsions:
REMARK  status: ('A' for Active; 'I' for Inactive)
REMARK    1  A    between atoms: N4_4  and  N5_5 
REMARK    2  A    between atoms: C6_6  and  C7_7 
REMARK    3  A    between atoms: C10_10  and  N11_11 
ROOT
ATOM      1  N5  ZIN AC000      -1.319   4.576   0.048  0.00  0.00    -0.177 NA
ATOM      2  C6  ZIN AC000      -0.663   5.739   0.146  0.00  0.00     0.176 C 
ENDROOT
BRANCH   2   3
ATOM      3  C7  ZIN AC000      -1.366   6.921   0.268  0.00  0.00     0.097 A 
ATOM      4  O14 ZIN AC000      -2.712   7.059   0.302  0.00  0.00    -0.287 OA
ATOM      5  C10 ZIN AC000      -3.023   8.352   0.431  0.00  0.00     0.215 A 
ATOM      6  C9  ZIN AC000      -1.859   9.124   0.478  0.00  0.00     0.065 A 
ATOM      7  C8  ZIN AC000      -0.795   8.278   0.380  0.00  0.00     0.043 A 
BRANCH   5   8
ATOM      8  N11 ZIN AC000      -4.407   8.891   0.508  0.00  0.00    -0.090 N 
ATOM      9  O12 ZIN AC000      -4.602  10.188   0.630  0.00  0.00    -0.530 OA
ATOM     10  O13 ZIN AC000      -5.437   8.072   0.455  0.00  0.00    -0.530 OA
ENDBRANCH   5   8
ENDBRANCH   2   3
BRANCH   1  11
ATOM     11  N4  ZIN AC000      -0.664   3.465   0.032  0.00  0.00    -0.209 N 
ATOM     12  C3  ZIN AC000       0.800   3.307   0.007  0.00  0.00     0.261 A 
ATOM     13  C2  ZIN AC000       0.996   1.804  -0.004  0.00  0.00     0.267 A 
ATOM     14  O1  ZIN AC000       2.049   1.203  -0.025  0.00  0.00    -0.269 OA
ATOM     15  N17 ZIN AC000      -0.243   1.275   0.009  0.00  0.00    -0.155 NA
ATOM     16  C15 ZIN AC000      -1.185   2.225   0.034  0.00  0.00     0.368 A 
ATOM     17  O16 ZIN AC000      -2.377   1.994   0.053  0.00  0.00    -0.243 OA
ENDBRANCH   1  11
TORSDOF 3
