REMARK  2 active torsions:
REMARK  status: ('A' for Active; 'I' for Inactive)
REMARK    1  A    between atoms: O2_2  and  C3_3 
REMARK    2  A    between atoms: C15_15  and  O17_16 
ROOT
ATOM      1  C3  ZIN AC000      -1.201  -0.638   0.010  0.00  0.00     0.102 A 
ATOM      2  C4  ZIN AC000      -2.396   0.071   0.019  0.00  0.00     0.040 A 
ATOM      3  C5  ZIN AC000      -3.614  -0.569   0.005  0.00  0.00     0.012 A 
ATOM      4  C6  ZIN AC000      -3.715  -1.966  -0.045  0.00  0.00    -0.020 A 
ATOM      5  C7  ZIN AC000      -5.099  -2.517  -0.225  0.00  0.00     0.311 C 
ATOM      6  N8  ZIN AC000      -5.140  -3.632  -1.149  0.00  0.00     0.088 N 
ATOM      7  C9  ZIN AC000      -6.508  -3.865  -1.632  0.00  0.00     0.310 C 
ATOM      8  C10 ZIN AC000      -4.541  -4.854  -0.688  0.00  0.00     0.273 C 
ATOM      9  C11 ZIN AC000      -3.059  -4.944  -0.911  0.00  0.00     0.051 C 
ATOM     10  C12 ZIN AC000      -2.266  -4.151   0.109  0.00  0.00     0.036 C 
ATOM     11  C13 ZIN AC000      -2.570  -4.594   1.502  0.00  0.00    -0.011 C 
ATOM     12  C14 ZIN AC000      -1.717  -5.102   2.327  0.00  0.00     0.002 C 
ATOM     13  C15 ZIN AC000      -0.274  -5.315   2.001  0.00  0.00     0.143 C 
ATOM     14  C18 ZIN AC000      -0.026  -5.307   0.506  0.00  0.00     0.069 C 
ATOM     15  C19 ZIN AC000      -0.775  -4.231  -0.229  0.00  0.00     0.148 C 
ATOM     16  O21 ZIN AC000      -0.275  -2.921   0.062  0.00  0.00    -0.341 OA
ATOM     17  C22 ZIN AC000      -1.293  -2.036   0.004  0.00  0.00     0.110 A 
ATOM     18  C23 ZIN AC000      -2.545  -2.666  -0.013  0.00  0.00     0.001 A 
ENDROOT
BRANCH   1  19
ATOM     19  O2  ZIN AC000       0.002  -0.004   0.002  0.00  0.00    -0.353 OA
ATOM     20  C1  ZIN AC000      -0.017   1.425   0.010  0.00  0.00     0.210 C 
ENDBRANCH   1  19
BRANCH  13  21
ATOM     21  O17 ZIN AC000       0.498  -4.274   2.604  0.00  0.00    -0.392 OA
ATOM     22  H40 ZIN AC000       0.421  -4.236   3.568  0.00  0.00     0.210 HD
ENDBRANCH  13  21
TORSDOF 2
