REMARK  5 active torsions:
REMARK  status: ('A' for Active; 'I' for Inactive)
REMARK    1  A    between atoms: O2_2  and  C3_3 
REMARK    2  A    between atoms: C4_4  and  O5_5 
REMARK    3  A    between atoms: C9_9  and  N10_10 
REMARK    4  A    between atoms: C12_12  and  N13_13 
REMARK       I    between atoms: N16_16  and  C17_17 
REMARK    5  A    between atoms: C17_17  and  C19_19 
ROOT
ATOM      1  C3  ZIN AC000      -1.212  -0.658  -0.033  0.00  0.00     0.103 A 
ATOM      2  C4  ZIN AC000      -1.264  -2.058  -0.051  0.00  0.00     0.102 A 
ATOM      3  C7  ZIN AC000      -2.464  -2.712  -0.048  0.00  0.00     0.057 A 
ATOM      4  C8  ZIN AC000      -3.655  -1.977  -0.027  0.00  0.00     0.039 A 
ATOM      5  C9  ZIN AC000      -4.923  -2.608  -0.022  0.00  0.00     0.137 A 
ATOM      6  N11 ZIN AC000      -6.006  -1.845  -0.001  0.00  0.00    -0.202 NA
ATOM      7  C12 ZIN AC000      -5.919  -0.518   0.015  0.00  0.00     0.184 A 
ATOM      8  N27 ZIN AC000      -4.766   0.122   0.012  0.00  0.00    -0.330 N 
ATOM      9  H28 ZIN AC000      -4.753   1.092   0.025  0.00  0.00     0.168 HD
ATOM     10  C29 ZIN AC000      -3.610  -0.561  -0.009  0.00  0.00     0.051 A 
ATOM     11  C30 ZIN AC000      -2.370   0.088  -0.006  0.00  0.00     0.070 A 
ENDROOT
BRANCH   7  12
ATOM     12  N13 ZIN AC000      -7.088   0.223   0.037  0.00  0.00    -0.250 NA
ATOM     13  C26 ZIN AC000      -8.267  -0.654   0.038  0.00  0.00     0.118 C 
ATOM     14  C25 ZIN AC000      -9.532   0.196  -0.120  0.00  0.00     0.140 C 
ATOM     15  N16 ZIN AC000      -9.529   1.236   0.920  0.00  0.00    -0.348 N 
ATOM     16  C15 ZIN AC000      -8.325   2.066   1.071  0.00  0.00     0.140 C 
ATOM     17  C17 ZIN AC000     -10.602   1.422   1.715  0.00  0.00     0.248 C 
ATOM     18  C14 ZIN AC000      -7.107   1.143   1.183  0.00  0.00     0.118 C 
ATOM     19  O18 ZIN AC000     -10.553   2.228   2.620  0.00  0.00    -0.270 OA
BRANCH  17  20
ATOM     20  C19 ZIN AC000     -11.862   0.630   1.478  0.00  0.00     0.213 C 
ATOM     21  O24 ZIN AC000     -12.937   1.154   2.273  0.00  0.00    -0.376 OA
ATOM     22  C23 ZIN AC000     -13.765   0.081   2.741  0.00  0.00     0.168 C 
ATOM     23  C22 ZIN AC000     -13.148  -1.240   2.236  0.00  0.00     0.029 C 
ATOM     24  C21 ZIN AC000     -11.676  -0.832   1.958  0.00  0.00     0.043 C 
ENDBRANCH  17  20
ENDBRANCH   7  12
BRANCH   5  25
ATOM     25  N10 ZIN AC000      -5.027  -3.983  -0.039  0.00  0.00    -0.383 N 
ATOM     26  H38 ZIN AC000      -4.227  -4.530  -0.054  0.00  0.00     0.157 HD
ATOM     27  H39 ZIN AC000      -5.902  -4.403  -0.036  0.00  0.00     0.157 HD
ENDBRANCH   5  25
BRANCH   1  28
ATOM     28  O2  ZIN AC000      -0.008  -0.030  -0.035  0.00  0.00    -0.353 OA
ATOM     29  C1  ZIN AC000      -0.021   1.398  -0.010  0.00  0.00     0.210 C 
ENDBRANCH   1  28
BRANCH   2  30
ATOM     30  O5  ZIN AC000      -0.108  -2.774  -0.072  0.00  0.00    -0.353 OA
ATOM     31  C6  ZIN AC000      -0.227  -4.198  -0.090  0.00  0.00     0.210 C 
ENDBRANCH   2  30
TORSDOF 5
