REMARK  4 active torsions:
REMARK  status: ('A' for Active; 'I' for Inactive)
REMARK    1  A    between atoms: C2_2  and  N4_3 
REMARK    2  A    between atoms: C2_2  and  C8_7 
REMARK    3  A    between atoms: C8_7  and  C9_8 
REMARK    4  A    between atoms: C12_11  and  O13_12 
ROOT
ATOM      1  C9  ZIN AC000       0.870  -2.011   1.172  0.00  0.00    -0.056 A 
ATOM      2  C10 ZIN AC000      -0.118  -2.814   1.711  0.00  0.00     0.010 A 
ATOM      3  C11 ZIN AC000      -0.003  -4.189   1.648  0.00  0.00     0.037 A 
ATOM      4  C12 ZIN AC000       1.105  -4.764   1.044  0.00  0.00     0.065 A 
ATOM      5  C14 ZIN AC000       2.095  -3.957   0.503  0.00  0.00     0.037 A 
ATOM      6  C15 ZIN AC000       1.973  -2.582   0.564  0.00  0.00     0.010 A 
ENDROOT
BRANCH   1   7
ATOM      7  C8  ZIN AC000       0.742  -0.511   1.242  0.00  0.00     0.070 C 
BRANCH   7   8
ATOM      8  C2  ZIN AC000       0.002  -0.004   0.002  0.00  0.00     0.183 C 
ATOM      9  C1  ZIN AC000      -0.019   1.526   0.010  0.00  0.00     0.040 C 
BRANCH   8  10
ATOM     10  N4  ZIN AC000      -1.376  -0.512   0.012  0.00  0.00    -0.075 N 
ATOM     11  H5  ZIN AC000      -1.864  -0.178  -0.805  0.00  0.00     0.274 HD
ATOM     12  H6  ZIN AC000      -1.362  -1.521   0.007  0.00  0.00     0.274 HD
ATOM     13  H7  ZIN AC000      -1.848  -0.187   0.843  0.00  0.00     0.274 HD
ENDBRANCH   8  10
ENDBRANCH   7   8
ENDBRANCH   1   7
BRANCH   4  14
ATOM     14  O13 ZIN AC000       1.220  -6.117   0.981  0.00  0.00    -0.361 OA
ATOM     15  H23 ZIN AC000       0.830  -6.508   0.187  0.00  0.00     0.217 HD
ENDBRANCH   4  14
TORSDOF 4
