REMARK  8 active torsions:
REMARK  status: ('A' for Active; 'I' for Inactive)
REMARK    1  A    between atoms: O2_2  and  C3_3 
REMARK    2  A    between atoms: C5_5  and  C6_6 
REMARK    3  A    between atoms: C11_11  and  O12_12 
REMARK    4  A    between atoms: O12_12  and  C13_13 
REMARK    5  A    between atoms: C13_13  and  C14_14 
REMARK    6  A    between atoms: C14_14  and  C15_15 
REMARK    7  A    between atoms: C15_15  and  N16_16 
REMARK    8  A    between atoms: C19_19  and  C20_20 
ROOT
ATOM      1  N16 ZIN AC000       2.358  -6.949  -0.018  0.00  0.00     0.088 N 
ATOM      2  C17 ZIN AC000       3.225  -6.301  -1.011  0.00  0.00     0.273 C 
ATOM      3  C18 ZIN AC000       4.644  -6.862  -0.895  0.00  0.00     0.041 C 
ATOM      4  C19 ZIN AC000       4.610  -8.375  -1.128  0.00  0.00     0.044 C 
ATOM      5  C30 ZIN AC000       3.664  -9.019  -0.112  0.00  0.00     0.041 C 
ATOM      6  C31 ZIN AC000       2.273  -8.396  -0.251  0.00  0.00     0.273 C 
ENDROOT
BRANCH   1   7
ATOM      7  C15 ZIN AC000       1.022  -6.337  -0.007  0.00  0.00     0.274 C 
BRANCH   7   8
ATOM      8  C14 ZIN AC000       1.159  -4.814  -0.013  0.00  0.00     0.057 C 
BRANCH   8   9
ATOM      9  C13 ZIN AC000      -0.233  -4.177  -0.001  0.00  0.00     0.177 C 
BRANCH   9  10
ATOM     10  O12 ZIN AC000      -0.105  -2.754  -0.006  0.00  0.00    -0.348 OA
BRANCH  10  11
ATOM     11  C11 ZIN AC000      -1.255  -2.032   0.003  0.00  0.00     0.102 A 
ATOM     12  C3  ZIN AC000      -1.201  -0.638   0.010  0.00  0.00     0.102 A 
ATOM     13  C4  ZIN AC000      -2.368   0.098   0.019  0.00  0.00     0.054 A 
ATOM     14  C5  ZIN AC000      -3.606  -0.558   0.028  0.00  0.00     0.012 A 
ATOM     15  C9  ZIN AC000      -3.651  -1.957   0.026  0.00  0.00     0.018 A 
ATOM     16  C10 ZIN AC000      -2.481  -2.684   0.017  0.00  0.00     0.040 A 
BRANCH  12  17
ATOM     17  O2  ZIN AC000       0.002  -0.004   0.002  0.00  0.00    -0.353 OA
ATOM     18  C1  ZIN AC000      -0.017   1.425   0.010  0.00  0.00     0.210 C 
ENDBRANCH  12  17
BRANCH  14  19
ATOM     19  C6  ZIN AC000      -4.852   0.219   0.037  0.00  0.00     0.155 C 
ATOM     20  C7  ZIN AC000      -6.182  -0.489   0.046  0.00  0.00     0.096 C 
ATOM     21  O8  ZIN AC000      -4.810   1.431   0.038  0.00  0.00    -0.293 OA
ENDBRANCH  14  19
ENDBRANCH  10  11
ENDBRANCH   9  10
ENDBRANCH   8   9
ENDBRANCH   7   8
ENDBRANCH   1   7
BRANCH   4  22
ATOM     22  C20 ZIN AC000       5.996  -8.942  -0.956  0.00  0.00     0.079 A 
ATOM     23  C29 ZIN AC000       6.772  -9.659  -1.971  0.00  0.00     0.027 A 
ATOM     24  C23 ZIN AC000       7.997  -9.995  -1.370  0.00  0.00     0.116 A 
ATOM     25  C28 ZIN AC000       6.529 -10.012  -3.301  0.00  0.00     0.019 A 
ATOM     26  O22 ZIN AC000       7.958  -9.531  -0.105  0.00  0.00    -0.212 OA
ATOM     27  C24 ZIN AC000       8.951 -10.688  -2.104  0.00  0.00     0.082 A 
ATOM     28  N21 ZIN AC000       6.719  -8.889   0.120  0.00  0.00    -0.131 NA
ATOM     29  C25 ZIN AC000       8.690 -11.032  -3.416  0.00  0.00     0.119 A 
ATOM     30  F26 ZIN AC000       9.619 -11.706  -4.129  0.00  0.00    -0.206 F 
ATOM     31  C27 ZIN AC000       7.479 -10.693  -4.008  0.00  0.00     0.043 A 
ENDBRANCH   4  22
TORSDOF 8
