REMARK  2 active torsions:
REMARK  status: ('A' for Active; 'I' for Inactive)
REMARK    1  A    between atoms: C3_3  and  O4_4 
REMARK    2  A    between atoms: C25_21  and  C26_22 
ROOT
ATOM      1  C1  ZIN AC000       0.018  -1.178  -0.004  0.00  0.00     0.015 C 
ATOM      2  C2  ZIN AC000       0.002  -0.004   0.002  0.00  0.00    -0.078 C 
ATOM      3  C3  ZIN AC000      -0.018   1.468   0.010  0.00  0.00     0.128 C 
ATOM      4  C5  ZIN AC000      -0.691   1.995  -1.271  0.00  0.00     0.052 C 
ATOM      5  C6  ZIN AC000       0.355   2.881  -1.986  0.00  0.00     0.010 C 
ATOM      6  C7  ZIN AC000       1.310   3.296  -0.851  0.00  0.00     0.002 C 
ATOM      7  C9  ZIN AC000       2.637   3.799  -1.368  0.00  0.00    -0.005 C 
ATOM      8  C11 ZIN AC000       2.406   4.955  -2.347  0.00  0.00     0.010 C 
ATOM      9  C12 ZIN AC000       3.752   5.577  -2.722  0.00  0.00     0.035 C 
ATOM     10  C13 ZIN AC000       4.654   4.487  -3.271  0.00  0.00    -0.072 C 
ATOM     11  C14 ZIN AC000       5.274   4.716  -4.428  0.00  0.00     0.053 C 
ATOM     12  C15 ZIN AC000       6.169   3.701  -4.994  0.00  0.00     0.149 C 
ATOM     13  O16 ZIN AC000       6.447   3.682  -6.175  0.00  0.00    -0.293 OA
ATOM     14  C17 ZIN AC000       6.729   2.678  -4.025  0.00  0.00     0.084 C 
ATOM     15  C18 ZIN AC000       5.557   2.123  -3.218  0.00  0.00     0.017 C 
ATOM     16  C19 ZIN AC000       4.809   3.222  -2.484  0.00  0.00     0.019 C 
ATOM     17  C21 ZIN AC000       3.422   2.700  -2.079  0.00  0.00    -0.002 C 
ATOM     18  C23 ZIN AC000       3.608   1.539  -1.095  0.00  0.00     0.006 C 
ATOM     19  C24 ZIN AC000       2.237   0.972  -0.739  0.00  0.00     0.014 C 
ATOM     20  C25 ZIN AC000       1.433   2.021  -0.001  0.00  0.00     0.006 C 
ENDROOT
BRANCH   3  21
ATOM     21  O4  ZIN AC000      -0.716   1.942   1.163  0.00  0.00    -0.377 OA
ATOM     22  H29 ZIN AC000      -1.633   1.641   1.220  0.00  0.00     0.211 HD
ENDBRANCH   3  21
BRANCH  20  23
ATOM     23  C26 ZIN AC000       1.975   2.267   1.409  0.00  0.00     0.009 C 
ATOM     24  C27 ZIN AC000       1.934   0.961   2.206  0.00  0.00     0.006 C 
ENDBRANCH  20  23
TORSDOF 2
