REMARK  6 active torsions:
REMARK  status: ('A' for Active; 'I' for Inactive)
REMARK       I    between atoms: N1_1  and  C2_2 
REMARK       I    between atoms: C2_2  and  N6_6 
REMARK    1  A    between atoms: N6_6  and  C7_7 
REMARK    2  A    between atoms: C7_7  and  C8_8 
REMARK    3  A    between atoms: C8_8  and  C9_9 
REMARK    4  A    between atoms: C9_9  and  C10_10 
REMARK    5  A    between atoms: C10_10  and  N12_11 
REMARK    6  A    between atoms: C10_10  and  C16_15 
ROOT
ATOM      1  C7  <0> d          -2.452   0.011   0.025  0.00  0.00     0.138 C 
ENDROOT
BRANCH   1   2
ATOM      2  N6  <0> d          -1.173  -0.704   0.009  0.00  0.00    -0.227 N 
ATOM      3  C2  <0> d           0.002  -0.004   0.002  0.00  0.00     0.665 C 
ATOM      4  N1  <0> d          -0.016   1.328   0.009  0.00  0.00    -0.235 N 
ATOM      5  N3  <0> d           1.165  -0.654  -0.013  0.00  0.00    -0.235 N 
ATOM      6  H19 <0> d           0.817   1.824   0.004  0.00  0.00     0.174 HD
ATOM      7  H20 <0> d          -0.863   1.801   0.016  0.00  0.00     0.174 HD
ATOM      8  H4  <0> d           1.998  -0.158  -0.018  0.00  0.00     0.174 HD
ATOM      9  H5  <0> d           1.178  -1.624  -0.018  0.00  0.00     0.174 HD
ATOM     10  H21 <0> d          -1.160  -1.674   0.004  0.00  0.00     0.177 HD
ENDBRANCH   1   2
BRANCH   1  11
ATOM     11  C8  <0> d          -3.601  -0.999   0.031  0.00  0.00     0.023 C 
BRANCH  11  12
ATOM     12  C9  <0> d          -4.936  -0.252   0.048  0.00  0.00     0.045 C 
BRANCH  12  13
ATOM     13  C10 <0> d          -6.085  -1.262   0.053  0.00  0.00     0.283 C 
BRANCH  13  14
ATOM     14  N12 <0> d          -6.079  -2.018  -1.206  0.00  0.00    -0.065 N 
ATOM     15  H13 <0> d          -6.837  -2.684  -1.202  0.00  0.00     0.275 HD
ATOM     16  H14 <0> d          -6.194  -1.382  -1.981  0.00  0.00     0.275 HD
ATOM     17  H15 <0> d          -5.201  -2.507  -1.300  0.00  0.00     0.275 HD
ENDBRANCH  13  14
BRANCH  13  18
ATOM     18  C16 <0> d          -7.396  -0.531   0.194  0.00  0.00     0.204 C 
ATOM     19  O17 <0> d          -8.169  -0.480  -0.748  0.00  0.00    -0.646 OA
ATOM     20  O18 <0> d          -7.683   0.009   1.248  0.00  0.00    -0.646 OA
ENDBRANCH  13  18
ENDBRANCH  12  13
ENDBRANCH  11  12
ENDBRANCH   1  11
TORSDOF 6
