REMARK  8 active torsions:
REMARK  status: ('A' for Active; 'I' for Inactive)
REMARK    1  A    between atoms: C2_2  and  N4_4 
REMARK    2  A    between atoms: C2_2  and  C34_32 
REMARK       I    between atoms: N4_4  and  C5_5 
REMARK    3  A    between atoms: C5_5  and  C7_7 
REMARK    4  A    between atoms: C9_9  and  O10_10 
REMARK    5  A    between atoms: C17_16  and  O18_17 
REMARK    6  A    between atoms: N29_27  and  C30_28 
REMARK    7  A    between atoms: C30_28  and  C31_29 
REMARK    8  A    between atoms: C36_34  and  C37_35 
ROOT
ATOM      1  C7  ZIN AC000      -3.515  -0.200   1.176  0.00  0.00     0.153 C 
ATOM      2  C8  ZIN AC000      -4.290   0.176   2.440  0.00  0.00     0.063 C 
ATOM      3  C9  ZIN AC000      -5.700  -0.405   2.343  0.00  0.00     0.105 C 
ATOM      4  C11 ZIN AC000      -6.491  -0.071   3.611  0.00  0.00     0.262 C 
ATOM      5  C13 ZIN AC000      -6.595   1.416   3.908  0.00  0.00     0.078 C 
ATOM      6  C14 ZIN AC000      -6.639   2.267   2.680  0.00  0.00    -0.046 A 
ATOM      7  C15 ZIN AC000      -6.549   1.669   1.444  0.00  0.00    -0.001 A 
ATOM      8  C16 ZIN AC000      -6.445   2.335   0.232  0.00  0.00     0.110 A 
ATOM      9  C17 ZIN AC000      -6.542   3.731   0.240  0.00  0.00     0.099 A 
ATOM     10  C19 ZIN AC000      -6.710   4.345   1.480  0.00  0.00     0.040 A 
ATOM     11  C20 ZIN AC000      -6.752   3.646   2.675  0.00  0.00     0.011 A 
ATOM     12  O21 ZIN AC000      -6.214   1.455  -0.766  0.00  0.00    -0.334 OA
ATOM     13  C22 ZIN AC000      -5.750   0.198  -0.188  0.00  0.00     0.215 C 
ATOM     14  C24 ZIN AC000      -4.243   0.292  -0.038  0.00  0.00     0.170 C 
ATOM     15  O25 ZIN AC000      -3.603   0.774  -0.942  0.00  0.00    -0.294 OA
ATOM     16  C26 ZIN AC000      -6.441   0.208   1.166  0.00  0.00     0.058 C 
ATOM     17  C27 ZIN AC000      -7.846  -0.385   1.091  0.00  0.00     0.051 C 
ATOM     18  C28 ZIN AC000      -8.575  -0.079   2.405  0.00  0.00     0.274 C 
ATOM     19  N29 ZIN AC000      -7.836  -0.649   3.507  0.00  0.00     0.096 N 
ENDROOT
BRANCH   1  20
ATOM     20  C5  ZIN AC000      -2.145   0.426   1.225  0.00  0.00     0.230 C 
ATOM     21  N4  ZIN AC000      -1.274   0.222   0.217  0.00  0.00    -0.344 N 
ATOM     22  H51 ZIN AC000      -1.529  -0.328  -0.540  0.00  0.00     0.163 HD
ATOM     23  O6  ZIN AC000      -1.825   1.113   2.172  0.00  0.00    -0.273 OA
BRANCH  21  24
ATOM     24  C2  ZIN AC000       0.058   0.830   0.265  0.00  0.00     0.095 C 
ATOM     25  C1  ZIN AC000      -0.079   2.352   0.333  0.00  0.00     0.047 C 
ATOM     26  C3  ZIN AC000       0.803   0.329   1.504  0.00  0.00     0.047 C 
BRANCH  24  27
ATOM     27  C34 ZIN AC000       0.829   0.450  -0.973  0.00  0.00     0.200 A 
ATOM     28  O44 ZIN AC000       0.392  -0.321  -1.974  0.00  0.00    -0.193 OA
ATOM     29  N43 ZIN AC000       1.255  -0.430  -2.820  0.00  0.00    -0.105 NA
ATOM     30  C36 ZIN AC000       2.322   0.234  -2.462  0.00  0.00     0.189 A 
ATOM     31  N35 ZIN AC000       2.054   0.807  -1.267  0.00  0.00    -0.201 NA
BRANCH  30  32
ATOM     32  C37 ZIN AC000       3.591   0.341  -3.225  0.00  0.00     0.014 A 
ATOM     33  C42 ZIN AC000       3.726  -0.307  -4.451  0.00  0.00     0.015 A 
ATOM     34  C41 ZIN AC000       4.906  -0.200  -5.159  0.00  0.00     0.001 A 
ATOM     35  C40 ZIN AC000       5.958   0.538  -4.647  0.00  0.00     0.000 A 
ATOM     36  C39 ZIN AC000       5.831   1.179  -3.428  0.00  0.00     0.001 A 
ATOM     37  C38 ZIN AC000       4.654   1.084  -2.715  0.00  0.00     0.015 A 
ENDBRANCH  30  32
ENDBRANCH  24  27
ENDBRANCH  21  24
ENDBRANCH   1  20
BRANCH   3  38
ATOM     38  O10 ZIN AC000      -5.623  -1.822   2.175  0.00  0.00    -0.386 OA
ATOM     39  H55 ZIN AC000      -5.176  -2.280   2.900  0.00  0.00     0.210 HD
ENDBRANCH   3  38
BRANCH  19  40
ATOM     40  C30 ZIN AC000      -8.561  -0.474   4.773  0.00  0.00     0.277 C 
BRANCH  40  41
ATOM     41  C31 ZIN AC000      -7.703  -0.996   5.928  0.00  0.00     0.014 A 
ATOM     42  C33 ZIN AC000      -8.332  -1.015   7.322  0.00  0.00     0.007 A 
ATOM     43  C32 ZIN AC000      -7.252   0.015   6.984  0.00  0.00     0.007 A 
ENDBRANCH  40  41
ENDBRANCH  19  40
BRANCH   9  44
ATOM     44  O18 ZIN AC000      -6.475   4.455  -0.908  0.00  0.00    -0.358 OA
ATOM     45  H58 ZIN AC000      -7.332   4.605  -1.330  0.00  0.00     0.217 HD
ENDBRANCH   9  44
TORSDOF 8
