REMARK  6 active torsions:
REMARK  status: ('A' for Active; 'I' for Inactive)
REMARK    1  A    between atoms: C2_2  and  N3_3 
REMARK    2  A    between atoms: C2_2  and  C7_7 
REMARK    3  A    between atoms: C2_2  and  C16_16 
REMARK    4  A    between atoms: C7_7  and  C8_8 
REMARK    5  A    between atoms: C11_11  and  O12_12 
REMARK    6  A    between atoms: C13_13  and  O14_14 
ROOT
ATOM      1  C8  ZIN AC000       2.165  -0.079  -1.208  0.00  0.00    -0.052 A 
ATOM      2  C9  ZIN AC000       2.550   1.137  -1.739  0.00  0.00     0.010 A 
ATOM      3  C10 ZIN AC000       3.876   1.525  -1.697  0.00  0.00     0.040 A 
ATOM      4  C11 ZIN AC000       4.823   0.694  -1.122  0.00  0.00     0.098 A 
ATOM      5  C13 ZIN AC000       4.436  -0.531  -0.586  0.00  0.00     0.099 A 
ATOM      6  C15 ZIN AC000       3.104  -0.911  -0.627  0.00  0.00     0.046 A 
ENDROOT
BRANCH   1   7
ATOM      7  C7  ZIN AC000       0.718  -0.497  -1.257  0.00  0.00     0.088 C 
BRANCH   7   8
ATOM      8  C2  ZIN AC000       0.002  -0.004   0.002  0.00  0.00     0.210 C 
ATOM      9  C1  ZIN AC000      -0.019   1.526   0.010  0.00  0.00     0.058 C 
BRANCH   8  10
ATOM     10  N3  ZIN AC000       0.713  -0.491   1.192  0.00  0.00    -0.060 N 
ATOM     11  H4  ZIN AC000       0.240  -0.165   2.022  0.00  0.00     0.275 HD
ATOM     12  H5  ZIN AC000       0.726  -1.500   1.187  0.00  0.00     0.275 HD
ATOM     13  H6  ZIN AC000       1.659  -0.141   1.185  0.00  0.00     0.275 HD
ENDBRANCH   8  10
BRANCH   8  14
ATOM     14  C16 ZIN AC000      -1.412  -0.526   0.013  0.00  0.00     0.210 C 
ATOM     15  O17 ZIN AC000      -2.175  -0.236  -0.893  0.00  0.00    -0.646 OA
ATOM     16  O18 ZIN AC000      -1.792  -1.237   0.927  0.00  0.00    -0.646 OA
ENDBRANCH   8  14
ENDBRANCH   7   8
ENDBRANCH   1   7
BRANCH   5  17
ATOM     17  O14 ZIN AC000       5.362  -1.351  -0.020  0.00  0.00    -0.358 OA
ATOM     18  H27 ZIN AC000       5.492  -1.202   0.927  0.00  0.00     0.217 HD
ENDBRANCH   5  17
BRANCH   4  19
ATOM     19  O12 ZIN AC000       6.128   1.074  -1.079  0.00  0.00    -0.358 OA
ATOM     20  H26 ZIN AC000       6.368   1.569  -0.284  0.00  0.00     0.217 HD
ENDBRANCH   4  19
TORSDOF 6
