REMARK  2 active torsions:
REMARK  status: ('A' for Active; 'I' for Inactive)
REMARK    1  A    between atoms: C5_5  and  C6_6 
REMARK    2  A    between atoms: C15_15  and  N16_16 
ROOT
ATOM      1  O1  ZIN AC000       0.239   0.042  -0.013  0.00  0.00    -0.271 OA
ATOM      2  C2  ZIN AC000       0.120   1.249   0.008  0.00  0.00     0.241 C 
ATOM      3  C3  ZIN AC000      -1.258   1.850  -0.024  0.00  0.00     0.252 C 
ATOM      4  N4  ZIN AC000      -1.405   2.634  -1.249  0.00  0.00    -0.279 NA
ATOM      5  C5  ZIN AC000      -0.685   3.675  -1.480  0.00  0.00     0.076 C 
ATOM      6  C13 ZIN AC000       0.344   4.205  -0.571  0.00  0.00     0.022 A 
ATOM      7  C14 ZIN AC000       0.430   5.598  -0.428  0.00  0.00     0.052 A 
ATOM      8  C15 ZIN AC000       1.369   6.157   0.407  0.00  0.00     0.103 A 
ATOM      9  C19 ZIN AC000       2.238   5.345   1.116  0.00  0.00     0.038 A 
ATOM     10  C20 ZIN AC000       2.166   3.976   0.986  0.00  0.00     0.033 A 
ATOM     11  C21 ZIN AC000       1.221   3.390   0.142  0.00  0.00     0.047 A 
ATOM     12  N22 ZIN AC000       1.213   2.006   0.064  0.00  0.00    -0.325 N 
ATOM     13  H32 ZIN AC000       2.072   1.555   0.042  0.00  0.00     0.169 HD
ENDROOT
BRANCH   5  14
ATOM     14  C6  ZIN AC000      -0.908   4.393  -2.756  0.00  0.00     0.015 A 
ATOM     15  C11 ZIN AC000       0.100   4.436  -3.722  0.00  0.00     0.046 A 
ATOM     16  C10 ZIN AC000      -0.117   5.103  -4.911  0.00  0.00     0.025 A 
ATOM     17 Cl12 ZIN AC000       1.616   3.641  -3.433  0.00  0.00    -0.083 Cl
ATOM     18  C9  ZIN AC000      -1.325   5.737  -5.142  0.00  0.00     0.002 A 
ATOM     19  C8  ZIN AC000      -2.324   5.702  -4.186  0.00  0.00     0.001 A 
ATOM     20  C7  ZIN AC000      -2.123   5.034  -2.995  0.00  0.00     0.015 A 
ENDBRANCH   5  14
BRANCH   8  21
ATOM     21  N16 ZIN AC000       1.450   7.629   0.548  0.00  0.00    -0.116 N 
ATOM     22  O17 ZIN AC000       0.686   8.343  -0.075  0.00  0.00    -0.532 OA
ATOM     23  O18 ZIN AC000       2.281   8.125   1.288  0.00  0.00    -0.532 OA
ENDBRANCH   8  21
TORSDOF 2
