REMARK  6 active torsions:
REMARK  status: ('A' for Active; 'I' for Inactive)
REMARK    1  A    between atoms: O1_1  and  C2_2 
REMARK    2  A    between atoms: C2_2  and  C3_3 
REMARK    3  A    between atoms: C2_2  and  C12_12 
REMARK    4  A    between atoms: C2_2  and  C18_18 
REMARK    5  A    between atoms: C3_3  and  C4_4 
REMARK    6  A    between atoms: C4_4  and  N5_5 
ROOT
ATOM      1  C2  <0> d          -0.064   0.239   0.080  0.00  0.00     0.090 C 
ENDROOT
BRANCH   1   2
ATOM      2  O1  <0> d          -0.020   1.667   0.117  0.00  0.00    -0.385 OA
ATOM      3  H24 <0> d           0.874   2.034   0.079  0.00  0.00     0.211 HD
ENDBRANCH   1   2
BRANCH   1   4
ATOM      4  C3  <0> d           0.708  -0.327   1.274  0.00  0.00     0.071 C 
BRANCH   4   5
ATOM      5  C4  <0> d           2.174   0.101   1.183  0.00  0.00     0.238 C 
BRANCH   5   6
ATOM      6  N5  <0> d           2.886  -0.329   2.394  0.00  0.00    -0.071 N 
ATOM      7  H6  <0> d           2.411   0.032   3.208  0.00  0.00     0.279 HD
ATOM      8  C11 <0> d           2.908  -1.795   2.451  0.00  0.00     0.235 C 
ATOM      9  C10 <0> d           3.576  -2.248   3.752  0.00  0.00     0.028 C 
ATOM     10  C9  <0> d           5.010  -1.713   3.795  0.00  0.00     0.003 C 
ATOM     11  C8  <0> d           4.980  -0.188   3.658  0.00  0.00     0.028 C 
ATOM     12  C7  <0> d           4.259   0.188   2.361  0.00  0.00     0.235 C 
ENDBRANCH   5   6
ENDBRANCH   4   5
ENDBRANCH   1   4
BRANCH   1  13
ATOM     13  C12 <0> d           0.564  -0.250  -1.201  0.00  0.00    -0.024 A 
ATOM     14  C17 <0> d           1.571   0.483  -1.800  0.00  0.00     0.010 A 
ATOM     15  C16 <0> d           2.149   0.032  -2.972  0.00  0.00     0.001 A 
ATOM     16  C15 <0> d           1.714  -1.146  -3.550  0.00  0.00     0.000 A 
ATOM     17  C14 <0> d           0.703  -1.875  -2.953  0.00  0.00     0.001 A 
ATOM     18  C13 <0> d           0.127  -1.427  -1.779  0.00  0.00     0.010 A 
ENDBRANCH   1  13
BRANCH   1  19
ATOM     19  C18 <0> d          -1.519  -0.229   0.145  0.00  0.00     0.025 C 
ATOM     20  C23 <0> d          -2.305   0.387  -1.014  0.00  0.00     0.008 C 
ATOM     21  C22 <0> d          -3.760  -0.081  -0.949  0.00  0.00     0.000 C 
ATOM     22  C21 <0> d          -4.379   0.362   0.379  0.00  0.00     0.000 C 
ATOM     23  C20 <0> d          -3.593  -0.253   1.538  0.00  0.00     0.000 C 
ATOM     24  C19 <0> d          -2.138   0.214   1.473  0.00  0.00     0.008 C 
ENDBRANCH   1  19
TORSDOF 6
