REMARK  4 active torsions:
REMARK  status: ('A' for Active; 'I' for Inactive)
REMARK    1  A    between atoms: C2_2  and  C4_4 
REMARK    2  A    between atoms: C4_4  and  C5_5 
REMARK    3  A    between atoms: C8_8  and  C9_9 
REMARK    4  A    between atoms: C9_9  and  C12_11 
ROOT
ATOM      1  C5  ZIN AC000      -1.416  -2.035  -0.119  0.00  0.00    -0.058 A 
ATOM      2  C6  ZIN AC000      -1.450  -2.619  -1.372  0.00  0.00     0.007 A 
ATOM      3  C7  ZIN AC000      -1.434  -3.996  -1.493  0.00  0.00     0.008 A 
ATOM      4  C8  ZIN AC000      -1.384  -4.789  -0.361  0.00  0.00    -0.044 A 
ATOM      5  C15 ZIN AC000      -1.348  -4.205   0.891  0.00  0.00     0.008 A 
ATOM      6  C16 ZIN AC000      -1.361  -2.828   1.012  0.00  0.00     0.007 A 
ENDROOT
BRANCH   4   7
ATOM      7  C9  ZIN AC000      -1.367  -6.290  -0.494  0.00  0.00     0.115 C 
ATOM      8  C11 ZIN AC000      -0.087  -6.843   0.137  0.00  0.00     0.026 C 
BRANCH   7   9
ATOM      9  C12 ZIN AC000      -2.566  -6.870   0.212  0.00  0.00     0.181 C 
ATOM     10  O13 ZIN AC000      -3.173  -7.802  -0.285  0.00  0.00    -0.647 OA
ATOM     11  O14 ZIN AC000      -2.928  -6.406   1.280  0.00  0.00    -0.647 OA
ENDBRANCH   7   9
ENDBRANCH   4   7
BRANCH   1  12
ATOM     12  C4  ZIN AC000      -1.433  -0.534   0.013  0.00  0.00     0.042 C 
BRANCH  12  13
ATOM     13  C2  ZIN AC000       0.002  -0.004   0.002  0.00  0.00    -0.019 C 
ATOM     14  C1  ZIN AC000      -0.019   1.526   0.010  0.00  0.00     0.010 C 
ATOM     15  C3  ZIN AC000       0.742  -0.511   1.242  0.00  0.00     0.010 C 
ENDBRANCH  12  13
ENDBRANCH   1  12
TORSDOF 4
