REMARK  11 active torsions:
REMARK  status: ('A' for Active; 'I' for Inactive)
REMARK    1  A    between atoms: C2_2  and  O3_3 
REMARK    2  A    between atoms: O3_3  and  C4_4 
REMARK    3  A    between atoms: C5_5  and  N6_6 
REMARK       I    between atoms: N6_6  and  C7_7 
REMARK    4  A    between atoms: C7_7  and  C9_9 
REMARK    5  A    between atoms: C10_10  and  C11_11 
REMARK    6  A    between atoms: C11_11  and  N12_12 
REMARK    7  A    between atoms: C24_24  and  N25_25 
REMARK    8  A    between atoms: N25_25  and  C26_26 
REMARK    9  A    between atoms: C29_29  and  O30_30 
REMARK   10  A    between atoms: O30_30  and  C31_31 
REMARK   11  A    between atoms: C31_31  and  C32_32 
ROOT
ATOM      1  C4  ZIN AC000      -1.127  -4.088   0.328  0.00  0.00     0.097 A 
ATOM      2  C5  ZIN AC000      -1.211  -4.236  -1.065  0.00  0.00     0.069 A 
ATOM      3  C15 ZIN AC000      -0.268  -4.973  -1.746  0.00  0.00     0.048 A 
ATOM      4  C16 ZIN AC000       0.783  -5.578  -1.042  0.00  0.00     0.023 A 
ATOM      5  C17 ZIN AC000       0.870  -5.430   0.363  0.00  0.00     0.071 A 
ATOM      6  C18 ZIN AC000      -0.100  -4.670   1.035  0.00  0.00     0.071 A 
ATOM      7  N19 ZIN AC000       1.874  -6.006   1.042  0.00  0.00    -0.259 NA
ATOM      8  C20 ZIN AC000       2.797  -6.715   0.445  0.00  0.00     0.142 A 
ATOM      9  C21 ZIN AC000       2.790  -6.914  -0.945  0.00  0.00     0.089 A 
ATOM     10  C22 ZIN AC000       3.814  -7.696  -1.570  0.00  0.00     0.103 C 
ATOM     11  N23 ZIN AC000       4.626  -8.316  -2.066  0.00  0.00    -0.191 NA
ATOM     12  C24 ZIN AC000       1.767  -6.340  -1.715  0.00  0.00     0.067 A 
ENDROOT
BRANCH  12  13
ATOM     13  N25 ZIN AC000       1.723  -6.511  -3.084  0.00  0.00    -0.354 N 
ATOM     14  H60 ZIN AC000       1.858  -5.752  -3.672  0.00  0.00     0.166 HD
BRANCH  13  15
ATOM     15  C26 ZIN AC000       1.483  -7.780  -3.622  0.00  0.00     0.034 A 
ATOM     16  C40 ZIN AC000       2.075  -8.148  -4.824  0.00  0.00     0.056 A 
ATOM     17  C38 ZIN AC000       1.842  -9.403  -5.352  0.00  0.00     0.069 A 
ATOM     18  C29 ZIN AC000       1.008 -10.292  -4.688  0.00  0.00     0.091 A 
ATOM     19 Cl39 ZIN AC000       2.586  -9.866  -6.851  0.00  0.00    -0.081 Cl
ATOM     20  C28 ZIN AC000       0.413  -9.923  -3.491  0.00  0.00     0.041 A 
ATOM     21  C27 ZIN AC000       0.649  -8.670  -2.959  0.00  0.00     0.032 A 
BRANCH  18  22
ATOM     22  O30 ZIN AC000       0.774 -11.526  -5.211  0.00  0.00    -0.344 OA
BRANCH  22  23
ATOM     23  C31 ZIN AC000      -0.094 -12.389  -4.474  0.00  0.00     0.235 C 
BRANCH  23  24
ATOM     24  C32 ZIN AC000      -0.234 -13.701  -5.202  0.00  0.00     0.058 A 
ATOM     25  N37 ZIN AC000      -0.996 -14.650  -4.694  0.00  0.00    -0.263 NA
ATOM     26  C36 ZIN AC000      -1.151 -15.812  -5.298  0.00  0.00     0.117 A 
ATOM     27  C35 ZIN AC000      -0.506 -16.081  -6.490  0.00  0.00     0.019 A 
ATOM     28  C34 ZIN AC000       0.308 -15.110  -7.052  0.00  0.00     0.003 A 
ATOM     29  C33 ZIN AC000       0.443 -13.898  -6.390  0.00  0.00     0.029 A 
ENDBRANCH  23  24
ENDBRANCH  22  23
ENDBRANCH  18  22
ENDBRANCH  13  15
ENDBRANCH  12  13
BRANCH   2  30
ATOM     30  N6  ZIN AC000      -2.260  -3.631  -1.766  0.00  0.00    -0.321 N 
ATOM     31  C7  ZIN AC000      -2.657  -4.134  -2.952  0.00  0.00     0.245 C 
ATOM     32  O8  ZIN AC000      -2.177  -5.173  -3.363  0.00  0.00    -0.268 OA
ATOM     33  H46 ZIN AC000      -2.703  -2.850  -1.399  0.00  0.00     0.169 HD
BRANCH  31  34
ATOM     34  C9  ZIN AC000      -3.669  -3.425  -3.750  0.00  0.00     0.072 C 
ATOM     35  C10 ZIN AC000      -4.060  -3.922  -4.920  0.00  0.00     0.008 C 
BRANCH  35  36
ATOM     36  C11 ZIN AC000      -5.098  -3.196  -5.738  0.00  0.00     0.299 C 
BRANCH  36  37
ATOM     37  N12 ZIN AC000      -4.569  -2.938  -7.084  0.00  0.00     0.083 N 
ATOM     38  C13 ZIN AC000      -4.362  -4.194  -7.817  0.00  0.00     0.309 C 
ATOM     39  C14 ZIN AC000      -5.450  -2.031  -7.831  0.00  0.00     0.309 C 
ENDBRANCH  36  37
ENDBRANCH  35  36
ENDBRANCH  31  34
ENDBRANCH   2  30
BRANCH   1  40
ATOM     40  O3  ZIN AC000      -2.065  -3.358   0.984  0.00  0.00    -0.349 OA
BRANCH  40  41
ATOM     41  C2  ZIN AC000      -1.921  -3.240   2.401  0.00  0.00     0.171 C 
ATOM     42  C1  ZIN AC000      -3.063  -2.388   2.960  0.00  0.00     0.034 C 
ENDBRANCH  40  41
ENDBRANCH   1  40
TORSDOF 11
