REMARK  4 active torsions:
REMARK  status: ('A' for Active; 'I' for Inactive)
REMARK    1  A    between atoms: C2_2  and  C3_3 
REMARK    2  A    between atoms: C3_3  and  C4_4 
REMARK    3  A    between atoms: C4_4  and  C7_6 
REMARK    4  A    between atoms: C7_6  and  C8_7 
ROOT
ATOM      1  C7  <0> d           1.536  -2.528  -2.472  0.00  0.00     0.127 A 
ATOM      2  C10 <0> d           0.840  -2.044  -3.730  0.00  0.00     0.266 A 
ATOM      3  O11 <0> d          -0.314  -2.335  -3.962  0.00  0.00    -0.270 OA
ATOM      4  N12 <0> d           1.553  -1.278  -4.582  0.00  0.00    -0.157 NA
ATOM      5  C13 <0> d           2.827  -0.948  -4.341  0.00  0.00     0.351 A 
ATOM      6  O14 <0> d           3.394  -0.254  -5.162  0.00  0.00    -0.244 OA
ATOM      7  N15 <0> d           3.522  -1.326  -3.262  0.00  0.00    -0.276 N 
ATOM      8  C16 <0> d           2.979  -2.096  -2.296  0.00  0.00     0.244 A 
ATOM      9  O17 <0> d           3.622  -2.432  -1.324  0.00  0.00    -0.272 OA
ATOM     10  H33 <0> d           4.444  -1.038  -3.172  0.00  0.00     0.173 HD
ENDROOT
BRANCH   1  11
ATOM     11  C4  <0> d           0.739  -2.027  -1.265  0.00  0.00     0.009 C 
ATOM     12  C6  <0> d           0.939  -0.518  -1.112  0.00  0.00     0.011 C 
BRANCH  11  13
ATOM     13  C3  <0> d           1.228  -2.738  -0.001  0.00  0.00     0.005 C 
BRANCH  13  14
ATOM     14  C2  <0> d           0.350  -2.331   1.184  0.00  0.00    -0.004 C 
ATOM     15  C1  <0> d           0.839  -3.041   2.448  0.00  0.00     0.005 C 
ENDBRANCH  13  14
ENDBRANCH  11  13
ENDBRANCH   1  11
BRANCH   1  16
ATOM     16  C8  <0> d           1.492  -4.057  -2.466  0.00  0.00     0.025 C 
ATOM     17  C9  <0> d           2.280  -4.594  -3.662  0.00  0.00     0.007 C 
ENDBRANCH   1  16
TORSDOF 4
