REMARK  5 active torsions:
REMARK  status: ('A' for Active; 'I' for Inactive)
REMARK    1  A    between atoms: C2_2  and  C3_3 
REMARK    2  A    between atoms: C3_3  and  C5_4 
REMARK    3  A    between atoms: C3_3  and  N7_6 
REMARK    4  A    between atoms: C5_4  and  O6_5 
REMARK       I    between atoms: N7_6  and  C8_7 
REMARK    5  A    between atoms: C8_7  and  C10_9 
ROOT
ATOM      1  C10 ZIN AC000      -0.234   0.422  -4.849  0.00  0.00     0.129 C 
ATOM      2  C12 ZIN AC000      -1.291  -0.614  -5.122  0.00  0.00    -0.001 C 
ATOM      3  C13 ZIN AC000      -1.653  -0.928  -6.353  0.00  0.00    -0.017 C 
ATOM      4  C14 ZIN AC000      -2.688  -1.960  -6.557  0.00  0.00    -0.015 A 
ATOM      5  C15 ZIN AC000      -3.368  -1.861  -7.789  0.00  0.00     0.009 A 
ATOM      6  C16 ZIN AC000      -3.133  -0.846  -8.809  0.00  0.00    -0.027 A 
ATOM      7  C17 ZIN AC000      -3.978  -1.139  -9.792  0.00  0.00     0.096 A 
ATOM      8  N18 ZIN AC000      -4.730  -2.257  -9.463  0.00  0.00    -0.365 N 
ATOM      9  C19 ZIN AC000      -4.378  -2.720  -8.231  0.00  0.00     0.043 A 
ATOM     10  C20 ZIN AC000      -4.754  -3.758  -7.379  0.00  0.00     0.030 A 
ATOM     11  C21 ZIN AC000      -4.094  -3.858  -6.160  0.00  0.00     0.003 A 
ATOM     12  C22 ZIN AC000      -3.085  -2.994  -5.740  0.00  0.00     0.013 A 
ATOM     13  C23 ZIN AC000      -2.103   0.228  -8.572  0.00  0.00     0.081 C 
ATOM     14  C24 ZIN AC000      -1.054  -0.284  -7.575  0.00  0.00     0.260 C 
ATOM     15  N26 ZIN AC000      -0.122   0.788  -7.252  0.00  0.00     0.094 N 
ATOM     16  C27 ZIN AC000       0.724   1.116  -8.406  0.00  0.00     0.310 C 
ATOM     17  C28 ZIN AC000       0.693   0.502  -6.067  0.00  0.00     0.290 C 
ATOM     18  H40 ZIN AC000      -5.410  -2.652 -10.030  0.00  0.00     0.165 HD
ENDROOT
BRANCH   1  19
ATOM     19  C8  ZIN AC000       0.561   0.028  -3.631  0.00  0.00     0.227 C 
ATOM     20  N7  ZIN AC000      -0.055  -0.114  -2.441  0.00  0.00    -0.354 N 
ATOM     21  H37 ZIN AC000      -1.010   0.038  -2.368  0.00  0.00     0.163 HD
ATOM     22  O9  ZIN AC000       1.755  -0.162  -3.722  0.00  0.00    -0.273 OA
BRANCH  20  23
ATOM     23  C3  ZIN AC000       0.718  -0.497  -1.257  0.00  0.00     0.107 C 
BRANCH  23  24
ATOM     24  C2  ZIN AC000       0.002  -0.004   0.002  0.00  0.00     0.023 C 
ATOM     25  C1  ZIN AC000      -0.019   1.526   0.010  0.00  0.00     0.007 C 
ENDBRANCH  23  24
BRANCH  23  26
ATOM     26  C5  ZIN AC000       0.849  -2.021  -1.205  0.00  0.00     0.189 C 
BRANCH  26  27
ATOM     27  O6  ZIN AC000      -0.442  -2.604  -1.018  0.00  0.00    -0.399 OA
ATOM     28  H36 ZIN AC000      -0.435  -3.570  -0.976  0.00  0.00     0.209 HD
ENDBRANCH  26  27
ENDBRANCH  23  26
ENDBRANCH  20  23
ENDBRANCH   1  19
TORSDOF 5
