REMARK  4 active torsions:
REMARK  status: ('A' for Active; 'I' for Inactive)
REMARK    1  A    between atoms: C2_2  and  O3_3 
REMARK    2  A    between atoms: O3_3  and  C4_4 
REMARK    3  A    between atoms: C4_4  and  C6_6 
REMARK    4  A    between atoms: C6_6  and  C7_7 
ROOT
ATOM      1  C6  <0> d           1.527  -2.388   2.519  0.00  0.00     0.078 C 
ATOM      2  C13 <0> d           0.820  -1.940   3.801  0.00  0.00     0.055 C 
ATOM      3  C14 <0> d          -0.609  -2.487   3.808  0.00  0.00     0.273 C 
ATOM      4  N15 <0> d          -0.573  -3.954   3.734  0.00  0.00     0.084 N 
ATOM      5  C16 <0> d          -1.921  -4.521   3.878  0.00  0.00     0.309 C 
ATOM      6  C17 <0> d           0.059  -4.407   2.489  0.00  0.00     0.273 C 
ATOM      7  C18 <0> d           1.508  -3.917   2.442  0.00  0.00     0.055 C 
ENDROOT
BRANCH   1   8
ATOM      8  C4  <0> d           0.812  -1.815   1.323  0.00  0.00     0.272 C 
ATOM      9  O5  <0> d           0.335  -2.553   0.493  0.00  0.00    -0.264 OA
BRANCH   8  10
ATOM     10  O3  <0> d           0.704  -0.485   1.178  0.00  0.00    -0.321 OA
BRANCH  10  11
ATOM     11  C2  <0> d           0.002  -0.004   0.002  0.00  0.00     0.174 C 
ATOM     12  C1  <0> d          -0.019   1.526   0.010  0.00  0.00     0.034 C 
ENDBRANCH  10  11
ENDBRANCH   8  10
ENDBRANCH   1   8
BRANCH   1  13
ATOM     13  C7  <0> d           2.954  -1.903   2.532  0.00  0.00    -0.040 A 
ATOM     14  C12 <0> d           3.222  -0.548   2.601  0.00  0.00     0.008 A 
ATOM     15  C11 <0> d           4.531  -0.103   2.618  0.00  0.00     0.001 A 
ATOM     16  C10 <0> d           5.571  -1.012   2.557  0.00  0.00     0.000 A 
ATOM     17  C9  <0> d           5.302  -2.366   2.484  0.00  0.00     0.001 A 
ATOM     18  C8  <0> d           3.994  -2.811   2.471  0.00  0.00     0.008 A 
ENDBRANCH   1  13
TORSDOF 4
