REMARK  1 active torsions:
REMARK  status: ('A' for Active; 'I' for Inactive)
REMARK    1  A    between atoms: N6_6  and  C7_7 
ROOT
ATOM      1  C7  <0> d           2.101  -3.544  -0.039  0.00  0.00     0.139 C 
ATOM      2  N8  <0> d           2.585  -3.901   1.097  0.00  0.00    -0.228 NA
ATOM      3  C9  <0> d           3.549  -4.832   1.341  0.00  0.00     0.087 A 
ATOM      4  C10 <0> d           4.519  -4.567   2.311  0.00  0.00     0.057 A 
ATOM      5  C11 <0> d           5.483  -5.513   2.606  0.00  0.00     0.036 A 
ATOM      6 Cl12 <0> d           6.686  -5.174   3.811  0.00  0.00    -0.084 Cl
ATOM      7  C13 <0> d           5.493  -6.727   1.944  0.00  0.00     0.026 A 
ATOM      8  C14 <0> d           4.546  -6.995   0.969  0.00  0.00     0.033 A 
ATOM      9  C15 <0> d           3.587  -6.049   0.652  0.00  0.00     0.061 A 
ATOM     10  N16 <0> d           2.694  -6.304  -0.402  0.00  0.00    -0.354 N 
ATOM     11  C17 <0> d           2.712  -5.460  -1.513  0.00  0.00     0.046 A 
ATOM     12  C18 <0> d           2.974  -5.972  -2.773  0.00  0.00     0.030 A 
ATOM     13  C19 <0> d           3.025  -5.127  -3.867  0.00  0.00     0.002 A 
ATOM     14  C20 <0> d           2.818  -3.769  -3.709  0.00  0.00     0.001 A 
ATOM     15  C21 <0> d           2.543  -3.245  -2.461  0.00  0.00     0.017 A 
ATOM     16  C22 <0> d           2.467  -4.093  -1.352  0.00  0.00     0.036 A 
ATOM     17  H35 <0> d           2.076  -7.051  -0.358  0.00  0.00     0.166 HD
ENDROOT
BRANCH   1  18
ATOM     18  N6  <0> d           1.144  -2.555  -0.024  0.00  0.00    -0.362 N 
ATOM     19  C5  <0> d           0.420  -2.184  -1.249  0.00  0.00     0.152 C 
ATOM     20  C4  <0> d          -1.082  -2.189  -0.946  0.00  0.00     0.254 C 
ATOM     21  N2  <0> d          -1.351  -1.317   0.204  0.00  0.00    -0.072 N 
ATOM     22  C1  <0> d          -2.801  -1.235   0.425  0.00  0.00     0.269 C 
ATOM     23  H3  <0> d          -0.988  -0.394   0.017  0.00  0.00     0.279 HD
ATOM     24  C24 <0> d          -0.704  -1.861   1.404  0.00  0.00     0.254 C 
ATOM     25  C23 <0> d           0.817  -1.838   1.219  0.00  0.00     0.152 C 
ENDBRANCH   1  18
TORSDOF 1
