REMARK  7 active torsions:
REMARK  status: ('A' for Active; 'I' for Inactive)
REMARK    1  A    between atoms: C4_4  and  C6_5 
REMARK    2  A    between atoms: C10_9  and  C12_10 
REMARK    3  A    between atoms: C12_10  and  O14_12 
REMARK    4  A    between atoms: O14_12  and  C15_13 
REMARK    5  A    between atoms: C15_13  and  C16_14 
REMARK    6  A    between atoms: C20_18  and  O21_19 
REMARK    7  A    between atoms: O21_19  and  C22_20 
ROOT
ATOM      1  C16 <0> d           1.567  -3.781   4.342  0.00  0.00    -0.031 A 
ATOM      2  C17 <0> d           2.551  -4.720   4.093  0.00  0.00     0.009 A 
ATOM      3  C18 <0> d           2.979  -5.561   5.105  0.00  0.00     0.003 A 
ATOM      4  C19 <0> d           2.424  -5.464   6.366  0.00  0.00     0.037 A 
ATOM      5  C20 <0> d           1.436  -4.522   6.618  0.00  0.00     0.076 A 
ATOM      6  C28 <0> d           1.012  -3.677   5.603  0.00  0.00     0.046 A 
ENDROOT
BRANCH   1   7
ATOM      7  C15 <0> d           1.103  -2.866   3.237  0.00  0.00     0.217 C 
BRANCH   7   8
ATOM      8  O14 <0> d           1.917  -1.664   3.231  0.00  0.00    -0.317 OA
BRANCH   8   9
ATOM      9  C12 <0> d           1.632  -0.740   2.301  0.00  0.00     0.264 C 
ATOM     10  O13 <0> d           0.731  -0.929   1.517  0.00  0.00    -0.265 OA
BRANCH   9  11
ATOM     11  C10 <0> d           2.434   0.534   2.233  0.00  0.00     0.102 A 
ATOM     12  C2  <0> d           2.059   1.549   1.151  0.00  0.00    -0.027 A 
ATOM     13  C1  <0> d           2.197   3.033   1.495  0.00  0.00     0.016 C 
ATOM     14  C3  <0> d           0.898   1.193   0.220  0.00  0.00     0.016 C 
ATOM     15  C4  <0> d           3.346   0.731   1.020  0.00  0.00     0.034 A 
BRANCH  15  16
ATOM     16  C6  <0> d           3.373  -0.363  -0.016  0.00  0.00     0.016 C 
ATOM     17  C7  <0> d           4.258  -0.328  -0.985  0.00  0.00     0.100 C 
ATOM     18 Cl8  <0> d           5.396   0.980  -1.074  0.00  0.00    -0.071 Cl
ATOM     19 Cl9  <0> d           4.289  -1.588  -2.179  0.00  0.00    -0.071 Cl
ENDBRANCH  15  16
ENDBRANCH   9  11
ENDBRANCH   8   9
ENDBRANCH   7   8
ENDBRANCH   1   7
BRANCH   5  20
ATOM     20  O21 <0> d           0.889  -4.425   7.858  0.00  0.00    -0.311 OA
BRANCH  20  21
ATOM     21  C22 <0> d          -0.082  -3.494   8.055  0.00  0.00     0.076 A 
ATOM     22  C27 <0> d           0.257  -2.214   8.468  0.00  0.00     0.037 A 
ATOM     23  C26 <0> d          -0.731  -1.268   8.662  0.00  0.00     0.003 A 
ATOM     24  C25 <0> d          -2.058  -1.601   8.457  0.00  0.00     0.000 A 
ATOM     25  C24 <0> d          -2.398  -2.878   8.052  0.00  0.00     0.003 A 
ATOM     26  C23 <0> d          -1.413  -3.825   7.851  0.00  0.00     0.037 A 
ENDBRANCH  20  21
ENDBRANCH   5  20
TORSDOF 7
