REMARK  5 active torsions:
REMARK  status: ('A' for Active; 'I' for Inactive)
REMARK    1  A    between atoms: N2_2  and  C5_5 
REMARK    2  A    between atoms: C5_5  and  C6_6 
REMARK    3  A    between atoms: C6_6  and  C7_7 
REMARK    4  A    between atoms: C7_7  and  C9_8 
REMARK    5  A    between atoms: C7_7  and  C15_14 
ROOT
ATOM      1  C7  ZIN AC000      -2.794  -2.566  -0.111  0.00  0.00     0.072 C 
ENDROOT
BRANCH   1   2
ATOM      2  C6  ZIN AC000      -1.366  -2.033   0.023  0.00  0.00     0.043 C 
BRANCH   2   3
ATOM      3  C5  ZIN AC000      -1.401  -0.510   0.160  0.00  0.00     0.235 C 
BRANCH   3   4
ATOM      4  N2  ZIN AC000      -0.029   0.002   0.288  0.00  0.00    -0.079 N 
ATOM      5  C1  ZIN AC000      -0.054   1.470   0.299  0.00  0.00     0.269 C 
ATOM      6  H3  ZIN AC000       0.524  -0.320  -0.492  0.00  0.00     0.278 HD
ATOM      7  C4  ZIN AC000       0.561  -0.488   1.541  0.00  0.00     0.269 C 
ENDBRANCH   3   4
ENDBRANCH   2   3
ENDBRANCH   1   2
BRANCH   1   8
ATOM      8  C9  ZIN AC000      -3.399  -2.064  -1.396  0.00  0.00    -0.048 A 
ATOM      9  C14 ZIN AC000      -4.596  -1.373  -1.373  0.00  0.00     0.008 A 
ATOM     10  C13 ZIN AC000      -5.149  -0.908  -2.552  0.00  0.00     0.001 A 
ATOM     11  C12 ZIN AC000      -4.510  -1.143  -3.755  0.00  0.00     0.000 A 
ATOM     12  C11 ZIN AC000      -3.315  -1.839  -3.779  0.00  0.00     0.001 A 
ATOM     13  C10 ZIN AC000      -2.760  -2.300  -2.599  0.00  0.00     0.008 A 
ENDBRANCH   1   8
BRANCH   1  14
ATOM     14  C15 ZIN AC000      -2.769  -4.073  -0.122  0.00  0.00     0.042 A 
ATOM     15  N20 ZIN AC000      -3.743  -4.745   0.459  0.00  0.00    -0.265 NA
ATOM     16  C19 ZIN AC000      -3.766  -6.064   0.470  0.00  0.00     0.117 A 
ATOM     17  C18 ZIN AC000      -2.753  -6.793  -0.125  0.00  0.00     0.019 A 
ATOM     18  C17 ZIN AC000      -1.709  -6.121  -0.741  0.00  0.00     0.003 A 
ATOM     19  C16 ZIN AC000      -1.722  -4.734  -0.737  0.00  0.00     0.028 A 
ENDBRANCH   1  14
TORSDOF 5
