REMARK  6 active torsions:
REMARK  status: ('A' for Active; 'I' for Inactive)
REMARK    1  A    between atoms: O2_2  and  N3_3 
REMARK    2  A    between atoms: N6_6  and  C7_7 
REMARK    3  A    between atoms: C16_16  and  C17_17 
REMARK    4  A    between atoms: N21_21  and  C22_22 
REMARK    5  A    between atoms: C26_26  and  C28_27 
REMARK    6  A    between atoms: C28_27  and  N29_28 
ROOT
ATOM      1  C7  ZIN AC000       0.410  -5.260  -0.116  0.00  0.00     0.147 A 
ATOM      2  N8  ZIN AC000       0.134  -6.208  -0.995  0.00  0.00    -0.215 NA
ATOM      3  C9  ZIN AC000      -0.499  -7.321  -0.641  0.00  0.00     0.146 A 
ATOM      4  C10 ZIN AC000      -0.887  -7.504   0.697  0.00  0.00     0.064 A 
ATOM      5  C11 ZIN AC000      -0.606  -6.513   1.646  0.00  0.00     0.065 A 
ATOM      6  C12 ZIN AC000       0.053  -5.387   1.230  0.00  0.00     0.157 A 
ATOM      7  F13 ZIN AC000       0.346  -4.404   2.110  0.00  0.00    -0.203 F 
ATOM      8  C14 ZIN AC000      -1.587  -8.742   1.071  0.00  0.00     0.204 A 
ATOM      9  O15 ZIN AC000      -1.945  -8.949   2.217  0.00  0.00    -0.286 OA
ATOM     10  C16 ZIN AC000      -1.836  -9.723  -0.001  0.00  0.00     0.107 A 
ATOM     11  C20 ZIN AC000      -1.407  -9.432  -1.281  0.00  0.00     0.115 A 
ATOM     12  N21 ZIN AC000      -0.773  -8.290  -1.579  0.00  0.00    -0.335 N 
ENDROOT
BRANCH   1  13
ATOM     13  N6  ZIN AC000       1.072  -4.118  -0.536  0.00  0.00    -0.259 NA
ATOM     14  C5  ZIN AC000       0.256  -2.903  -0.278  0.00  0.00     0.154 C 
ATOM     15  C4  ZIN AC000       0.804  -1.855  -1.231  0.00  0.00     0.059 C 
ATOM     16  N3  ZIN AC000       0.735  -0.584  -1.103  0.00  0.00    -0.142 NA
ATOM     17  C26 ZIN AC000       1.442  -2.628  -2.371  0.00  0.00     0.076 C 
ATOM     18  C25 ZIN AC000       1.249  -4.117  -2.012  0.00  0.00     0.110 C 
BRANCH  16  19
ATOM     19  O2  ZIN AC000       0.100  -0.019   0.029  0.00  0.00    -0.262 OA
ATOM     20  C1  ZIN AC000       0.097   1.410   0.042  0.00  0.00     0.240 C 
ENDBRANCH  16  19
BRANCH  17  21
ATOM     21  C28 ZIN AC000       0.748  -2.308  -3.696  0.00  0.00     0.241 C 
BRANCH  21  22
ATOM     22  N29 ZIN AC000       1.042  -0.921  -4.081  0.00  0.00    -0.079 N 
ATOM     23  H30 ZIN AC000       0.706  -0.295  -3.364  0.00  0.00     0.274 HD
ATOM     24  H31 ZIN AC000       2.039  -0.806  -4.187  0.00  0.00     0.274 HD
ATOM     25  H32 ZIN AC000       0.584  -0.710  -4.954  0.00  0.00     0.274 HD
ENDBRANCH  21  22
ENDBRANCH  17  21
ENDBRANCH   1  13
BRANCH  12  26
ATOM     26  C22 ZIN AC000      -0.353  -8.064  -2.963  0.00  0.00     0.091 A 
ATOM     27  C24 ZIN AC000      -1.421  -8.176  -4.053  0.00  0.00     0.028 A 
ATOM     28  C23 ZIN AC000      -0.358  -9.267  -3.909  0.00  0.00     0.028 A 
ENDBRANCH  12  26
BRANCH  10  29
ATOM     29  C17 ZIN AC000      -2.528 -10.984   0.286  0.00  0.00     0.214 C 
ATOM     30  O18 ZIN AC000      -2.729 -11.790  -0.613  0.00  0.00    -0.644 OA
ATOM     31  O19 ZIN AC000      -2.905 -11.230   1.425  0.00  0.00    -0.644 OA
ENDBRANCH  10  29
TORSDOF 6
