REMARK  4 active torsions:
REMARK  status: ('A' for Active; 'I' for Inactive)
REMARK    1  A    between atoms: O2_2  and  C3_3 
REMARK    2  A    between atoms: C3_3  and  C5_5 
REMARK    3  A    between atoms: C6_6  and  C7_7 
REMARK    4  A    between atoms: C7_7  and  O9_9 
ROOT
ATOM      1  C5  <0> d          -1.247  -2.107   0.003  0.00  0.00     0.088 C 
ATOM      2  C6  <0> d          -2.436  -2.733   0.011  0.00  0.00     0.088 C 
ENDROOT
BRANCH   1   3
ATOM      3  C3  <0> d          -1.190  -0.632   0.010  0.00  0.00     0.282 C 
ATOM      4  O4  <0> d          -2.217   0.015   0.023  0.00  0.00    -0.260 OA
BRANCH   3   5
ATOM      5  O2  <0> d           0.002  -0.004   0.002  0.00  0.00    -0.323 OA
ATOM      6  C1  <0> d          -0.018   1.448   0.010  0.00  0.00     0.213 C 
ENDBRANCH   3   5
ENDBRANCH   1   3
BRANCH   2   7
ATOM      7  C7  <0> d          -2.493  -4.207   0.003  0.00  0.00     0.282 C 
ATOM      8  O8  <0> d          -1.465  -4.855  -0.010  0.00  0.00    -0.260 OA
BRANCH   7   9
ATOM      9  O9  <0> d          -3.685  -4.835   0.011  0.00  0.00    -0.323 OA
ATOM     10  C10 <0> d          -3.665  -6.287   0.003  0.00  0.00     0.213 C 
ENDBRANCH   7   9
ENDBRANCH   2   7
TORSDOF 4
