REMARK  5 active torsions:
REMARK  status: ('A' for Active; 'I' for Inactive)
REMARK    1  A    between atoms: C2_2  and  C4_4 
REMARK    2  A    between atoms: C4_4  and  S6_5 
REMARK    3  A    between atoms: C4_4  and  C7_6 
REMARK    4  A    between atoms: C7_6  and  S9_7 
REMARK    5  A    between atoms: C7_6  and  C10_8 
ROOT
ATOM      1  C4  <0> d          -1.330   1.951   0.019  0.00  0.00     0.169 C 
ENDROOT
BRANCH   1   2
ATOM      2  C2  <0> d          -0.015   1.215   0.009  0.00  0.00     0.188 C 
ATOM      3  O1  <0> d           0.002  -0.004   0.002  0.00  0.00    -0.647 OA
ATOM      4  O3  <0> d           1.033   1.839   0.002  0.00  0.00    -0.647 OA
ENDBRANCH   1   2
BRANCH   1   5
ATOM      5  S6  <0> d          -1.849   2.237   1.733  0.00  0.00    -0.165 SA
ATOM      6  H13 <0> d          -0.842   2.972   2.236  0.00  0.00     0.102 HD
ENDBRANCH   1   5
BRANCH   1   7
ATOM      7  C7  <0> d          -1.168   3.294  -0.696  0.00  0.00     0.169 C 
BRANCH   7   8
ATOM      8  S9  <0> d          -0.649   3.008  -2.410  0.00  0.00    -0.165 SA
ATOM      9  H14 <0> d          -1.656   2.272  -2.913  0.00  0.00     0.102 HD
ENDBRANCH   7   8
BRANCH   7  10
ATOM     10  C10 <0> d          -2.483   4.029  -0.685  0.00  0.00     0.188 C 
ATOM     11  O11 <0> d          -2.516   5.216  -0.406  0.00  0.00    -0.647 OA
ATOM     12  O12 <0> d          -3.515   3.438  -0.957  0.00  0.00    -0.647 OA
ENDBRANCH   7  10
ENDBRANCH   1   7
TORSDOF 5
