REMARK  9 active torsions:
REMARK  status: ('A' for Active; 'I' for Inactive)
REMARK    1  A    between atoms: N1_1  and  C5_5 
REMARK    2  A    between atoms: C5_5  and  C6_6 
REMARK    3  A    between atoms: C6_6  and  N7_7 
REMARK    4  A    between atoms: N7_7  and  C8_8 
REMARK    5  A    between atoms: C8_8  and  C9_9 
REMARK    6  A    between atoms: C9_9  and  N10_10 
REMARK    7  A    between atoms: N10_10  and  C13_13 
REMARK    8  A    between atoms: C13_13  and  C14_14 
REMARK    9  A    between atoms: C14_14  and  N15_15 
ROOT
ATOM      1  C9  <0> d          -2.169   5.405   3.745  0.00  0.00     0.262 C 
ENDROOT
BRANCH   1   2
ATOM      2  C8  <0> d          -1.447   4.950   2.475  0.00  0.00     0.297 C 
BRANCH   2   3
ATOM      3  N7  <0> d          -1.407   3.482   2.433  0.00  0.00     0.086 N 
ATOM      4  H23 <0> d          -2.337   3.094   2.496  0.00  0.00     0.315 HD
BRANCH   3   5
ATOM      5  C6  <0> d          -0.720   3.008   1.225  0.00  0.00     0.296 C 
BRANCH   5   6
ATOM      6  C5  <0> d          -0.699   1.479   1.216  0.00  0.00     0.259 C 
BRANCH   6   7
ATOM      7  N1  <0> d          -0.012   1.005   0.008  0.00  0.00    -0.078 N 
ATOM      8  H2  <0> d           0.002  -0.004   0.002  0.00  0.00     0.274 HD
ATOM      9  H3  <0> d           0.935   1.354   0.000  0.00  0.00     0.274 HD
ATOM     10  H4  <0> d          -0.500   1.339  -0.810  0.00  0.00     0.274 HD
ENDBRANCH   6   7
ENDBRANCH   5   6
ENDBRANCH   3   5
ENDBRANCH   2   3
ENDBRANCH   1   2
BRANCH   1  11
ATOM     11  N10 <0> d          -2.208   6.872   3.788  0.00  0.00    -0.072 N 
ATOM     12  H11 <0> d          -1.266   7.234   3.788  0.00  0.00     0.277 HD
ATOM     13  H12 <0> d          -2.701   7.219   2.978  0.00  0.00     0.277 HD
BRANCH  11  14
ATOM     14  C13 <0> d          -2.901   7.309   5.007  0.00  0.00     0.259 C 
BRANCH  14  15
ATOM     15  C14 <0> d          -2.942   8.838   5.051  0.00  0.00     0.257 C 
BRANCH  15  16
ATOM     16  N15 <0> d          -3.635   9.274   6.270  0.00  0.00    -0.078 N 
ATOM     17  H16 <0> d          -4.577   8.913   6.269  0.00  0.00     0.274 HD
ATOM     18  H17 <0> d          -3.143   8.928   7.080  0.00  0.00     0.274 HD
ATOM     19  H18 <0> d          -3.662  10.283   6.299  0.00  0.00     0.274 HD
ENDBRANCH  15  16
ENDBRANCH  14  15
ENDBRANCH  11  14
ENDBRANCH   1  11
TORSDOF 9
