REMARK  5 active torsions:
REMARK  status: ('A' for Active; 'I' for Inactive)
REMARK       I    between atoms: N1_1  and  C2_2 
REMARK    1  A    between atoms: C2_2  and  C4_4 
REMARK    2  A    between atoms: C4_4  and  C5_5 
REMARK    3  A    between atoms: C5_5  and  C6_6 
REMARK    4  A    between atoms: C6_6  and  N8_7 
REMARK    5  A    between atoms: C6_6  and  C12_11 
ROOT
ATOM      1  C6  <0> d          -2.307  -3.058   0.008  0.00  0.00     0.283 C 
ENDROOT
BRANCH   1   2
ATOM      2  C5  <0> d          -0.993  -2.276  -0.001  0.00  0.00     0.053 C 
BRANCH   2   3
ATOM      3  C4  <0> d          -1.293  -0.775   0.010  0.00  0.00     0.105 C 
BRANCH   3   4
ATOM      4  C2  <0> d           0.002  -0.004   0.002  0.00  0.00     0.215 C 
ATOM      5  N1  <0> d          -0.016   1.344   0.009  0.00  0.00    -0.370 N 
ATOM      6  H15 <0> d           0.817   1.840   0.004  0.00  0.00     0.159 HD
ATOM      7  H16 <0> d          -0.863   1.817   0.016  0.00  0.00     0.159 HD
ATOM      8  O3  <0> d           1.060  -0.596  -0.011  0.00  0.00    -0.274 OA
ENDBRANCH   3   4
ENDBRANCH   2   3
ENDBRANCH   1   2
BRANCH   1   9
ATOM      9  N8  <0> d          -3.015  -2.813   1.271  0.00  0.00    -0.065 N 
ATOM     10  H9  <0> d          -3.882  -3.329   1.276  0.00  0.00     0.275 HD
ATOM     11  H10 <0> d          -2.440  -3.114   2.043  0.00  0.00     0.275 HD
ATOM     12  H11 <0> d          -3.211  -1.827   1.361  0.00  0.00     0.275 HD
ENDBRANCH   1   9
BRANCH   1  13
ATOM     13  C12 <0> d          -2.016  -4.531  -0.127  0.00  0.00     0.204 C 
ATOM     14  O13 <0> d          -1.841  -5.211   0.870  0.00  0.00    -0.646 OA
ATOM     15  O14 <0> d          -1.955  -5.042  -1.232  0.00  0.00    -0.646 OA
ENDBRANCH   1  13
TORSDOF 5
