REMARK  5 active torsions:
REMARK  status: ('A' for Active; 'I' for Inactive)
REMARK       I    between atoms: C2_2  and  N4_4 
REMARK    1  A    between atoms: N4_4  and  C5_5 
REMARK    2  A    between atoms: C9_9  and  N10_10 
REMARK    3  A    between atoms: N13_13  and  C14_14 
REMARK    4  A    between atoms: C20_20  and  N21_21 
REMARK    5  A    between atoms: N21_21  and  C22_22 
ROOT
ATOM      1  N10 ZIN AC000      -2.999  -5.139   0.351  0.00  0.00    -0.262 N 
ATOM      2  C11 ZIN AC000      -4.104  -4.373   0.323  0.00  0.00     0.337 A 
ATOM      3  O12 ZIN AC000      -3.982  -3.173   0.472  0.00  0.00    -0.246 OA
ATOM      4  N13 ZIN AC000      -5.334  -4.875   0.137  0.00  0.00    -0.260 N 
ATOM      5  C17 ZIN AC000      -5.537  -6.199  -0.036  0.00  0.00     0.268 A 
ATOM      6  O18 ZIN AC000      -6.658  -6.642  -0.205  0.00  0.00    -0.267 OA
ATOM      7  C19 ZIN AC000      -4.373  -7.087  -0.016  0.00  0.00     0.104 A 
ATOM      8  C20 ZIN AC000      -4.486  -8.463  -0.186  0.00  0.00     0.128 A 
ATOM      9  N30 ZIN AC000      -3.368  -9.241  -0.158  0.00  0.00    -0.303 N 
ATOM     10  C31 ZIN AC000      -3.496 -10.689  -0.337  0.00  0.00     0.161 C 
ATOM     11  C32 ZIN AC000      -2.149  -8.706   0.031  0.00  0.00     0.257 A 
ATOM     12  O33 ZIN AC000      -1.170  -9.435   0.050  0.00  0.00    -0.267 OA
ATOM     13  C34 ZIN AC000      -1.982  -7.328   0.206  0.00  0.00     0.035 A 
ATOM     14  C35 ZIN AC000      -0.608  -6.747   0.416  0.00  0.00     0.056 C 
ATOM     15  C36 ZIN AC000      -3.091  -6.507   0.179  0.00  0.00     0.075 A 
ENDROOT
BRANCH   1  16
ATOM     16  C9  ZIN AC000      -1.746  -4.546   0.550  0.00  0.00     0.046 A 
ATOM     17  C8  ZIN AC000      -1.272  -4.337   1.839  0.00  0.00     0.030 A 
ATOM     18  C7  ZIN AC000      -0.036  -3.752   2.036  0.00  0.00     0.004 A 
ATOM     19  C6  ZIN AC000       0.733  -3.373   0.952  0.00  0.00     0.029 A 
ATOM     20  C5  ZIN AC000       0.265  -3.580  -0.339  0.00  0.00     0.036 A 
ATOM     21  C37 ZIN AC000      -0.979  -4.162  -0.540  0.00  0.00     0.059 A 
BRANCH  20  22
ATOM     22  N4  ZIN AC000       1.045  -3.196  -1.436  0.00  0.00    -0.327 N 
ATOM     23  C2  ZIN AC000       2.386  -3.309  -1.382  0.00  0.00     0.218 C 
ATOM     24  C1  ZIN AC000       3.219  -3.000  -2.599  0.00  0.00     0.117 C 
ATOM     25  O3  ZIN AC000       2.924  -3.660  -0.353  0.00  0.00    -0.274 OA
ATOM     26  H41 ZIN AC000       0.619  -2.849  -2.236  0.00  0.00     0.169 HD
ENDBRANCH  20  22
ENDBRANCH   1  16
BRANCH   4  27
ATOM     27  C14 ZIN AC000      -6.483  -3.966   0.121  0.00  0.00     0.098 A 
ATOM     28  C16 ZIN AC000      -6.800  -3.204   1.409  0.00  0.00     0.028 A 
ATOM     29  C15 ZIN AC000      -7.703  -4.354   0.958  0.00  0.00     0.028 A 
ENDBRANCH   4  27
BRANCH   8  30
ATOM     30  N21 ZIN AC000      -5.714  -9.033  -0.380  0.00  0.00    -0.339 N 
ATOM     31  H50 ZIN AC000      -6.207  -9.393   0.374  0.00  0.00     0.167 HD
BRANCH  30  32
ATOM     32  C22 ZIN AC000      -6.260  -9.096  -1.668  0.00  0.00     0.072 A 
ATOM     33  C28 ZIN AC000      -7.552  -9.579  -1.854  0.00  0.00     0.144 A 
ATOM     34  C27 ZIN AC000      -8.089  -9.635  -3.127  0.00  0.00     0.062 A 
ATOM     35  F29 ZIN AC000      -8.283  -9.982  -0.792  0.00  0.00    -0.204 F 
ATOM     36  C25 ZIN AC000      -7.340  -9.222  -4.214  0.00  0.00     0.009 A 
ATOM     37  C24 ZIN AC000      -6.054  -8.747  -4.031  0.00  0.00     0.020 A 
ATOM     38  I26 ZIN AC000      -8.155  -9.316  -6.142  0.00  0.00    -0.044 I 
ATOM     39  C23 ZIN AC000      -5.512  -8.684  -2.761  0.00  0.00     0.034 A 
ENDBRANCH  30  32
ENDBRANCH   8  30
TORSDOF 5
