REMARK  7 active torsions:
REMARK  status: ('A' for Active; 'I' for Inactive)
REMARK    1  A    between atoms: C7_7  and  O8_8 
REMARK    2  A    between atoms: O8_8  and  C9_9 
REMARK    3  A    between atoms: C9_9  and  C10_10 
REMARK    4  A    between atoms: C10_10  and  C11_11 
REMARK    5  A    between atoms: C11_11  and  C12_12 
REMARK    6  A    between atoms: C12_12  and  C13_13 
REMARK    7  A    between atoms: N17_17  and  C18_18 
ROOT
ATOM      1  C9  <0> d           2.342   8.075  -0.313  0.00  0.00     0.175 C 
ENDROOT
BRANCH   1   2
ATOM      2  O8  <0> d           1.144   7.417   0.105  0.00  0.00    -0.351 OA
BRANCH   2   3
ATOM      3  C7  <0> d           1.145   6.058   0.077  0.00  0.00     0.069 A 
ATOM      4  C6  <0> d           0.014   5.356   0.469  0.00  0.00     0.046 A 
ATOM      5  C5  <0> d           0.015   3.976   0.441  0.00  0.00    -0.028 A 
ATOM      6  C4  <0> d          -1.211   3.209   0.867  0.00  0.00     0.050 C 
ATOM      7  C26 <0> d           1.147   3.290   0.021  0.00  0.00     0.041 A 
ATOM      8  C3  <0> d          -1.333   1.935   0.031  0.00  0.00     0.108 C 
ATOM      9  C2  <0> d          -0.014   1.209   0.009  0.00  0.00     0.222 C 
ATOM     10  O1  <0> d           0.002  -0.004   0.002  0.00  0.00    -0.273 OA
ATOM     11  N27 <0> d           1.146   1.890   0.001  0.00  0.00    -0.327 N 
ATOM     12  H54 <0> d           1.988   1.407  -0.021  0.00  0.00     0.169 HD
ATOM     13  C25 <0> d           2.278   3.993  -0.371  0.00  0.00     0.033 A 
ATOM     14  C24 <0> d           2.276   5.374  -0.343  0.00  0.00     0.039 A 
ENDBRANCH   2   3
ENDBRANCH   1   2
BRANCH   1  15
ATOM     15  C10 <0> d           2.152   9.590  -0.214  0.00  0.00     0.027 C 
BRANCH  15  16
ATOM     16  C11 <0> d           3.435  10.295  -0.661  0.00  0.00     0.010 C 
BRANCH  16  17
ATOM     17  C12 <0> d           3.245  11.810  -0.562  0.00  0.00     0.082 C 
BRANCH  17  18
ATOM     18  C13 <0> d           4.509  12.504  -1.002  0.00  0.00     0.148 A 
ATOM     19  N17 <0> d           4.817  12.895  -2.253  0.00  0.00    -0.230 N 
ATOM     20  N16 <0> d           5.981  13.449  -2.202  0.00  0.00    -0.044 NA
ATOM     21  N15 <0> d           6.406  13.411  -0.987  0.00  0.00    -0.023 NA
ATOM     22  N14 <0> d           5.523  12.839  -0.243  0.00  0.00    -0.114 NA
BRANCH  19  23
ATOM     23  C18 <0> d           3.983  12.730  -3.446  0.00  0.00     0.113 C 
ATOM     24  C23 <0> d           4.736  11.892  -4.482  0.00  0.00     0.027 C 
ATOM     25  C22 <0> d           3.865  11.720  -5.729  0.00  0.00     0.002 C 
ATOM     26  C21 <0> d           3.544  13.095  -6.320  0.00  0.00     0.000 C 
ATOM     27  C20 <0> d           2.792  13.932  -5.284  0.00  0.00     0.002 C 
ATOM     28  C19 <0> d           3.662  14.104  -4.038  0.00  0.00     0.027 C 
ENDBRANCH  19  23
ENDBRANCH  17  18
ENDBRANCH  16  17
ENDBRANCH  15  16
ENDBRANCH   1  15
TORSDOF 7
