REMARK  2 active torsions:
REMARK  status: ('A' for Active; 'I' for Inactive)
REMARK    1  A    between atoms: N1_1  and  N2_2 
REMARK    2  A    between atoms: N2_2  and  C3_3 
ROOT
ATOM      1  C3  <0> d          -1.188  -0.713   0.010  0.00  0.00     0.171 A 
ATOM      2  C4  <0> d          -1.184  -2.126   0.008  0.00  0.00     0.024 A 
ATOM      3  C5  <0> d          -0.006  -2.880  -0.001  0.00  0.00     0.016 A 
ATOM      4  C6  <0> d          -0.082  -4.242  -0.002  0.00  0.00     0.001 A 
ATOM      5  C7  <0> d          -1.314  -4.893   0.006  0.00  0.00     0.001 A 
ATOM      6  C8  <0> d          -2.481  -4.189   0.015  0.00  0.00     0.014 A 
ATOM      7  C9  <0> d          -2.439  -2.788   0.016  0.00  0.00    -0.003 A 
ATOM      8  C10 <0> d          -3.600  -1.992   0.026  0.00  0.00     0.153 A 
ATOM      9  N11 <0> d          -3.477  -0.685   0.027  0.00  0.00    -0.160 NA
ATOM     10  N12 <0> d          -2.348  -0.080   0.024  0.00  0.00    -0.131 NA
ENDROOT
BRANCH   1  11
ATOM     11  N2  <0> d           0.002  -0.004   0.002  0.00  0.00    -0.306 N 
ATOM     12  H15 <0> d           0.849  -0.478  -0.009  0.00  0.00     0.182 HD
BRANCH  11  13
ATOM     13  N1  <0> d          -0.016   1.362   0.009  0.00  0.00    -0.248 NA
ATOM     14  H13 <0> d           0.920   1.736   0.003  0.00  0.00     0.143 HD
ATOM     15  H14 <0> d          -0.555   1.720  -0.765  0.00  0.00     0.143 HD
ENDBRANCH  11  13
ENDBRANCH   1  11
TORSDOF 2
