REMARK  2 active torsions:
REMARK  status: ('A' for Active; 'I' for Inactive)
REMARK    1  A    between atoms: N2_2  and  C5_5 
REMARK    2  A    between atoms: C9_8  and  C11_9 
ROOT
ATOM      1  C5  <0> d           0.690  -0.478  -1.207  0.00  0.00     0.218 C 
ATOM      2  C7  <0> d           0.830  -1.997  -1.143  0.00  0.00     0.039 C 
ATOM      3  C8  <0> d          -0.564  -2.619  -1.294  0.00  0.00     0.016 C 
ATOM      4  C9  <0> d          -1.037  -2.399  -2.730  0.00  0.00     0.052 C 
ATOM      5  C19 <0> d          -0.901  -0.949  -3.116  0.00  0.00    -0.041 A 
ATOM      6  C20 <0> d          -1.619  -0.503  -4.218  0.00  0.00     0.008 A 
ATOM      7  C21 <0> d          -1.534   0.812  -4.625  0.00  0.00     0.001 A 
ATOM      8  C22 <0> d          -0.726   1.694  -3.932  0.00  0.00     0.001 A 
ATOM      9  C23 <0> d          -0.014   1.254  -2.835  0.00  0.00     0.010 A 
ATOM     10  C24 <0> d          -0.102  -0.070  -2.421  0.00  0.00    -0.021 A 
ENDROOT
BRANCH   4  11
ATOM     11  C11 <0> d          -2.482  -2.810  -2.846  0.00  0.00    -0.048 A 
ATOM     12  C18 <0> d          -2.845  -3.814  -3.724  0.00  0.00     0.033 A 
ATOM     13  C16 <0> d          -4.171  -4.197  -3.827  0.00  0.00     0.056 A 
ATOM     14  C14 <0> d          -5.134  -3.565  -3.058  0.00  0.00     0.055 A 
ATOM     15 Cl17 <0> d          -4.627  -5.462  -4.923  0.00  0.00    -0.083 Cl
ATOM     16  C13 <0> d          -4.769  -2.557  -2.184  0.00  0.00     0.026 A 
ATOM     17 Cl15 <0> d          -6.799  -4.038  -3.191  0.00  0.00    -0.083 Cl
ATOM     18  C12 <0> d          -3.443  -2.180  -2.079  0.00  0.00     0.009 A 
ENDBRANCH   4  11
BRANCH   1  19
ATOM     19  N2  <0> d           0.002  -0.004   0.002  0.00  0.00    -0.071 N 
ATOM     20  C1  <0> d          -0.018   1.465   0.010  0.00  0.00     0.267 C 
ATOM     21  H3  <0> d           0.490  -0.338   0.820  0.00  0.00     0.277 HD
ATOM     22  H4  <0> d          -0.945  -0.353   0.009  0.00  0.00     0.277 HD
ENDBRANCH   1  19
TORSDOF 2
