REMARK  3 active torsions:
REMARK  status: ('A' for Active; 'I' for Inactive)
REMARK    1  A    between atoms: N2_2  and  C5_5 
REMARK    2  A    between atoms: C5_5  and  C6_6 
REMARK    3  A    between atoms: C6_6  and  C7_7 
ROOT
ATOM      1  C7  <0> d           1.416  -2.494  -2.455  0.00  0.00    -0.012 C 
ATOM      2  C8  <0> d           2.455  -3.330  -2.349  0.00  0.00    -0.018 C 
ATOM      3  C9  <0> d           2.942  -3.809  -1.025  0.00  0.00    -0.019 A 
ATOM      4  C10 <0> d           2.024  -4.434  -0.180  0.00  0.00     0.013 A 
ATOM      5  C11 <0> d           2.422  -4.918   1.047  0.00  0.00     0.001 A 
ATOM      6  C12 <0> d           3.744  -4.779   1.430  0.00  0.00     0.001 A 
ATOM      7  C13 <0> d           4.648  -4.155   0.601  0.00  0.00     0.008 A 
ATOM      8  C14 <0> d           4.269  -3.643  -0.641  0.00  0.00    -0.047 A 
ATOM      9  C15 <0> d           5.373  -2.936  -1.392  0.00  0.00     0.044 C 
ATOM     10  C16 <0> d           4.927  -2.334  -2.708  0.00  0.00     0.044 C 
ATOM     11  C17 <0> d           4.476  -3.381  -3.691  0.00  0.00    -0.047 A 
ATOM     12  C18 <0> d           5.282  -3.873  -4.689  0.00  0.00     0.008 A 
ATOM     13  C19 <0> d           4.755  -4.805  -5.573  0.00  0.00     0.001 A 
ATOM     14  C20 <0> d           3.444  -5.228  -5.456  0.00  0.00     0.001 A 
ATOM     15  C21 <0> d           2.638  -4.741  -4.438  0.00  0.00     0.013 A 
ATOM     16  C22 <0> d           3.179  -3.833  -3.549  0.00  0.00    -0.019 A 
ENDROOT
BRANCH   1  17
ATOM     17  C6  <0> d           0.710  -2.008  -1.215  0.00  0.00     0.055 C 
BRANCH  17  18
ATOM     18  C5  <0> d           0.690  -0.478  -1.207  0.00  0.00     0.235 C 
BRANCH  18  19
ATOM     19  N2  <0> d           0.002  -0.004   0.002  0.00  0.00    -0.079 N 
ATOM     20  C1  <0> d          -0.018   1.465   0.010  0.00  0.00     0.266 C 
ATOM     21  H3  <0> d           0.490  -0.338   0.820  0.00  0.00     0.276 HD
ATOM     22  H4  <0> d          -0.945  -0.353   0.009  0.00  0.00     0.276 HD
ENDBRANCH  18  19
ENDBRANCH  17  18
ENDBRANCH   1  17
TORSDOF 3
