REMARK  4 active torsions:
REMARK  status: ('A' for Active; 'I' for Inactive)
REMARK    1  A    between atoms: C2_2  and  C4_3 
REMARK    2  A    between atoms: C2_2  and  C7_6 
REMARK    3  A    between atoms: C11_10  and  C12_11 
REMARK    4  A    between atoms: C12_11  and  C14_13 
ROOT
ATOM      1  C7  ZIN AC000      -1.358  -0.883   0.270  0.00  0.00    -0.043 A 
ATOM      2  C8  ZIN AC000      -2.268  -0.266   1.110  0.00  0.00     0.008 A 
ATOM      3  C9  ZIN AC000      -3.627  -0.425   0.906  0.00  0.00     0.002 A 
ATOM      4  C10 ZIN AC000      -4.085  -1.202  -0.138  0.00  0.00     0.015 A 
ATOM      5  C11 ZIN AC000      -3.172  -1.828  -0.991  0.00  0.00     0.015 A 
ATOM      6  C20 ZIN AC000      -1.802  -1.658  -0.782  0.00  0.00     0.023 A 
ENDROOT
BRANCH   5   7
ATOM      7  C12 ZIN AC000      -3.655  -2.661  -2.111  0.00  0.00     0.192 C 
ATOM      8  O13 ZIN AC000      -4.840  -2.694  -2.377  0.00  0.00    -0.287 OA
BRANCH   7   9
ATOM      9  C14 ZIN AC000      -2.697  -3.455  -2.908  0.00  0.00     0.015 A 
ATOM     10  C19 ZIN AC000      -2.917  -3.657  -4.272  0.00  0.00     0.015 A 
ATOM     11  C18 ZIN AC000      -2.015  -4.395  -5.010  0.00  0.00     0.001 A 
ATOM     12  C17 ZIN AC000      -0.900  -4.943  -4.401  0.00  0.00     0.000 A 
ATOM     13  C16 ZIN AC000      -0.679  -4.751  -3.048  0.00  0.00     0.001 A 
ATOM     14  C15 ZIN AC000      -1.569  -4.011  -2.299  0.00  0.00     0.015 A 
ENDBRANCH   7   9
ENDBRANCH   5   7
BRANCH   1  15
ATOM     15  C2  ZIN AC000       0.120  -0.704   0.500  0.00  0.00     0.115 C 
ATOM     16  C1  ZIN AC000       0.473   0.782   0.409  0.00  0.00     0.026 C 
BRANCH  15  17
ATOM     17  C4  ZIN AC000       0.482  -1.224   1.867  0.00  0.00     0.181 C 
ATOM     18  O5  ZIN AC000       0.978  -0.475   2.692  0.00  0.00    -0.647 OA
ATOM     19  O6  ZIN AC000       0.281  -2.393   2.147  0.00  0.00    -0.647 OA
ENDBRANCH  15  17
ENDBRANCH   1  15
TORSDOF 4
