REMARK  12 active torsions:
REMARK  status: ('A' for Active; 'I' for Inactive)
REMARK    1  A    between atoms: C2_2  and  O3_3 
REMARK    2  A    between atoms: O3_3  and  C4_4 
REMARK    3  A    between atoms: C4_4  and  C6_6 
REMARK    4  A    between atoms: C6_6  and  C9_8 
REMARK    5  A    between atoms: C9_8  and  C10_9 
REMARK    6  A    between atoms: C10_9  and  C12_10 
REMARK    7  A    between atoms: C10_9  and  N25_23 
REMARK    8  A    between atoms: C12_10  and  C13_11 
REMARK    9  A    between atoms: C16_14  and  C17_15 
REMARK       I    between atoms: N25_23  and  C26_24 
REMARK   10  A    between atoms: C26_24  and  C28_26 
REMARK   11  A    between atoms: C28_26  and  C29_27 
REMARK   12  A    between atoms: C29_27  and  C30_28 
ROOT
ATOM      1  C10 ZIN AC000      -4.245  -4.538  -0.071  0.00  0.00     0.089 C 
ENDROOT
BRANCH   1   2
ATOM      2  C9  ZIN AC000      -2.852  -3.953   0.172  0.00  0.00     0.039 C 
BRANCH   2   3
ATOM      3  C6  ZIN AC000      -2.878  -2.446  -0.094  0.00  0.00     0.083 C 
ATOM      4  C8  ZIN AC000      -1.534  -1.835   0.307  0.00  0.00     0.020 C 
BRANCH   3   5
ATOM      5  C4  ZIN AC000      -3.126  -2.199  -1.560  0.00  0.00     0.262 C 
ATOM      6  O5  ZIN AC000      -3.267  -3.132  -2.315  0.00  0.00    -0.265 OA
BRANCH   5   7
ATOM      7  O3  ZIN AC000      -3.189  -0.942  -2.027  0.00  0.00    -0.322 OA
BRANCH   7   8
ATOM      8  C2  ZIN AC000      -3.430  -0.779  -3.450  0.00  0.00     0.174 C 
ATOM      9  C1  ZIN AC000      -3.470   0.711  -3.793  0.00  0.00     0.034 C 
ENDBRANCH   7   8
ENDBRANCH   5   7
ENDBRANCH   3   5
ENDBRANCH   2   3
ENDBRANCH   1   2
BRANCH   1  10
ATOM     10  C12 ZIN AC000      -4.194  -6.059   0.085  0.00  0.00     0.063 C 
BRANCH  10  11
ATOM     11  C13 ZIN AC000      -5.535  -6.646  -0.273  0.00  0.00    -0.056 A 
ATOM     12  C24 ZIN AC000      -5.797  -7.020  -1.579  0.00  0.00     0.008 A 
ATOM     13  C23 ZIN AC000      -7.021  -7.564  -1.911  0.00  0.00     0.013 A 
ATOM     14  C16 ZIN AC000      -7.998  -7.725  -0.931  0.00  0.00    -0.026 A 
ATOM     15  C15 ZIN AC000      -7.731  -7.341   0.381  0.00  0.00     0.013 A 
ATOM     16  C14 ZIN AC000      -6.501  -6.804   0.704  0.00  0.00     0.008 A 
BRANCH  14  17
ATOM     17  C17 ZIN AC000      -9.319  -8.302  -1.284  0.00  0.00    -0.026 A 
ATOM     18  C22 ZIN AC000      -9.586  -8.686  -2.597  0.00  0.00     0.012 A 
ATOM     19  C21 ZIN AC000     -10.813  -9.228  -2.918  0.00  0.00     0.001 A 
ATOM     20  C20 ZIN AC000     -11.782  -9.380  -1.943  0.00  0.00     0.000 A 
ATOM     21  C19 ZIN AC000     -11.524  -8.996  -0.639  0.00  0.00     0.001 A 
ATOM     22  C18 ZIN AC000     -10.298  -8.458  -0.305  0.00  0.00     0.012 A 
ENDBRANCH  14  17
ENDBRANCH  10  11
ENDBRANCH   1  10
BRANCH   1  23
ATOM     23  N25 ZIN AC000      -5.186  -3.978   0.903  0.00  0.00    -0.356 N 
ATOM     24  C26 ZIN AC000      -4.980  -4.163   2.222  0.00  0.00     0.218 C 
ATOM     25  O27 ZIN AC000      -4.016  -4.793   2.603  0.00  0.00    -0.274 OA
ATOM     26  H54 ZIN AC000      -5.957  -3.474   0.598  0.00  0.00     0.162 HD
BRANCH  24  27
ATOM     27  C28 ZIN AC000      -5.948  -3.588   3.223  0.00  0.00     0.113 C 
BRANCH  27  28
ATOM     28  C29 ZIN AC000      -5.487  -3.940   4.639  0.00  0.00     0.122 C 
BRANCH  28  29
ATOM     29  C30 ZIN AC000      -6.454  -3.364   5.641  0.00  0.00     0.172 C 
ATOM     30  O31 ZIN AC000      -7.423  -2.731   5.258  0.00  0.00    -0.648 OA
ATOM     31  O32 ZIN AC000      -6.268  -3.532   6.834  0.00  0.00    -0.648 OA
ENDBRANCH  28  29
ENDBRANCH  27  28
ENDBRANCH  24  27
ENDBRANCH   1  23
TORSDOF 12
