REMARK  6 active torsions:
REMARK  status: ('A' for Active; 'I' for Inactive)
REMARK    1  A    between atoms: C5_5  and  C6_6 
REMARK    2  A    between atoms: C6_6  and  O7_7 
REMARK    3  A    between atoms: O7_7  and  C8_8 
REMARK    4  A    between atoms: C8_8  and  C10_9 
REMARK    5  A    between atoms: C8_8  and  C17_16 
REMARK    6  A    between atoms: C10_9  and  N11_10 
ROOT
ATOM      1  C8  ZIN AC000      -1.569   7.884   0.066  0.00  0.00     0.174 C 
ENDROOT
BRANCH   1   2
ATOM      2  O7  ZIN AC000      -1.436   6.461   0.056  0.00  0.00    -0.375 OA
BRANCH   2   3
ATOM      3  C6  ZIN AC000      -0.082   6.004   0.035  0.00  0.00     0.209 C 
BRANCH   3   4
ATOM      4  C5  ZIN AC000      -0.061   4.497   0.026  0.00  0.00    -0.013 A 
ATOM      5  C4  ZIN AC000      -1.248   3.789   0.040  0.00  0.00     0.012 A 
ATOM      6  C3  ZIN AC000      -1.229   2.407   0.033  0.00  0.00     0.024 A 
ATOM      7  C2  ZIN AC000      -0.021   1.732   0.012  0.00  0.00     0.035 A 
ATOM      8 Cl1  ZIN AC000       0.002  -0.004   0.002  0.00  0.00    -0.084 Cl
ATOM      9  C27 ZIN AC000       1.167   2.440   0.004  0.00  0.00     0.048 A 
ATOM     10  C25 ZIN AC000       1.147   3.823   0.006  0.00  0.00     0.044 A 
ATOM     11 Cl26 ZIN AC000       2.638   4.712  -0.011  0.00  0.00    -0.084 Cl
ENDBRANCH   3   4
ENDBRANCH   2   3
ENDBRANCH   1   2
BRANCH   1  12
ATOM     12  C10 ZIN AC000      -1.637   8.399  -1.373  0.00  0.00     0.166 C 
BRANCH  12  13
ATOM     13  N11 ZIN AC000      -0.364   8.134  -2.048  0.00  0.00    -0.349 N 
ATOM     14  C16 ZIN AC000      -0.044   7.022  -2.745  0.00  0.00     0.182 A 
ATOM     15  N14 ZIN AC000       1.173   7.151  -3.200  0.00  0.00    -0.361 N 
ATOM     16  C13 ZIN AC000       1.670   8.332  -2.806  0.00  0.00     0.106 A 
ATOM     17  H15 ZIN AC000       1.644   6.493  -3.735  0.00  0.00     0.166 HD
ATOM     18  C12 ZIN AC000       0.724   8.963  -2.084  0.00  0.00     0.108 A 
ENDBRANCH  12  13
ENDBRANCH   1  12
BRANCH   1  19
ATOM     19  C17 ZIN AC000      -2.831   8.266   0.796  0.00  0.00    -0.006 A 
ATOM     20  C23 ZIN AC000      -2.937   9.512   1.388  0.00  0.00     0.044 A 
ATOM     21  C22 ZIN AC000      -4.097   9.864   2.054  0.00  0.00     0.048 A 
ATOM     22 Cl24 ZIN AC000      -1.620  10.638   1.284  0.00  0.00    -0.084 Cl
ATOM     23  C20 ZIN AC000      -5.146   8.966   2.137  0.00  0.00     0.035 A 
ATOM     24  C19 ZIN AC000      -5.037   7.718   1.550  0.00  0.00     0.024 A 
ATOM     25 Cl21 ZIN AC000      -6.600   9.405   2.978  0.00  0.00    -0.084 Cl
ATOM     26  C18 ZIN AC000      -3.879   7.369   0.880  0.00  0.00     0.013 A 
ENDBRANCH   1  19
TORSDOF 6
