REMARK  1 active torsions:
REMARK  status: ('A' for Active; 'I' for Inactive)
REMARK    1  A    between atoms: C6_6  and  C7_7 
REMARK       I    between atoms: C7_7  and  N8_8 
ROOT
ATOM      1  C1  <0> d          -0.018   1.461   0.010  0.00  0.00     0.187 C 
ATOM      2  N2  <0> d           0.002  -0.004   0.002  0.00  0.00    -0.205 N 
ATOM      3  N3  <0> d           0.006  -0.701  -1.214  0.00  0.00    -0.060 NA
ATOM      4  N4  <0> d           0.023  -1.990  -1.226  0.00  0.00    -0.110 NA
ATOM      5  C5  <0> d           0.038  -2.687  -0.075  0.00  0.00     0.197 A 
ATOM      6  C6  <0> d           0.058  -4.047   0.217  0.00  0.00     0.173 A 
ATOM      7  N10 <0> d           0.066  -4.168   1.562  0.00  0.00    -0.234 NA
ATOM      8  C11 <0> d           0.052  -2.988   2.109  0.00  0.00     0.222 A 
ATOM      9  N12 <0> d           0.035  -2.035   1.135  0.00  0.00    -0.237 N 
ATOM     10  C13 <0> d           0.022  -0.688   1.166  0.00  0.00     0.352 A 
ATOM     11  O14 <0> d           0.026  -0.097   2.228  0.00  0.00    -0.244 OA
ENDROOT
BRANCH   6  12
ATOM     12  C7  <0> d           0.069  -5.146  -0.757  0.00  0.00     0.272 C 
ATOM     13  N8  <0> d           0.088  -6.424  -0.330  0.00  0.00    -0.365 N 
ATOM     14  H18 <0> d           0.095  -6.618   0.621  0.00  0.00     0.159 HD
ATOM     15  H19 <0> d           0.095  -7.150  -0.973  0.00  0.00     0.159 HD
ATOM     16  O9  <0> d           0.060  -4.903  -1.949  0.00  0.00    -0.266 OA
ENDBRANCH   6  12
TORSDOF 1
