REMARK  9 active torsions:
REMARK  status: ('A' for Active; 'I' for Inactive)
REMARK    1  A    between atoms: O2_2  and  C3_3 
REMARK    2  A    between atoms: C12_12  and  O13_13 
REMARK    3  A    between atoms: C17_17  and  O18_18 
REMARK    4  A    between atoms: C17_17  and  C19_19 
REMARK    5  A    between atoms: C23_23  and  O25_24 
REMARK    6  A    between atoms: O25_24  and  C26_25 
REMARK    7  A    between atoms: C29_27  and  N31_28 
REMARK    8  A    between atoms: C35_32  and  O37_33 
REMARK    9  A    between atoms: C42_37  and  O43_38 
ROOT
ATOM      1  C3  ZIN AC000       0.642  -0.425   0.480  0.00  0.00     0.083 A 
ATOM      2  C4  ZIN AC000      -0.361   0.529   0.619  0.00  0.00     0.038 A 
ATOM      3  C5  ZIN AC000      -1.685   0.145   0.690  0.00  0.00     0.004 A 
ATOM      4  C6  ZIN AC000      -2.035  -1.194   0.624  0.00  0.00     0.017 A 
ATOM      5  C7  ZIN AC000      -1.049  -2.163   0.485  0.00  0.00     0.032 A 
ATOM      6  C8  ZIN AC000       0.303  -1.779   0.407  0.00  0.00     0.062 A 
ATOM      7  C9  ZIN AC000       1.349  -2.809   0.258  0.00  0.00     0.200 C 
ATOM      8  O10 ZIN AC000       2.519  -2.528   0.439  0.00  0.00    -0.286 OA
ATOM      9  C11 ZIN AC000       0.960  -4.182  -0.112  0.00  0.00     0.066 A 
ATOM     10  C12 ZIN AC000       1.910  -5.103  -0.542  0.00  0.00     0.090 A 
ATOM     11  C14 ZIN AC000       1.530  -6.407  -0.890  0.00  0.00     0.014 A 
ATOM     12  C15 ZIN AC000       0.214  -6.786  -0.807  0.00  0.00    -0.009 A 
ATOM     13  C16 ZIN AC000      -0.254  -8.174  -1.159  0.00  0.00     0.088 C 
ATOM     14  C17 ZIN AC000       0.794  -8.900  -1.999  0.00  0.00     0.124 C 
ATOM     15  C22 ZIN AC000       2.145  -8.794  -1.280  0.00  0.00     0.083 C 
ATOM     16  C23 ZIN AC000       2.616  -7.344  -1.354  0.00  0.00     0.164 C 
ATOM     17  C42 ZIN AC000      -0.756  -5.869  -0.379  0.00  0.00     0.088 A 
ATOM     18  C44 ZIN AC000      -0.395  -4.570  -0.031  0.00  0.00     0.066 A 
ATOM     19  C45 ZIN AC000      -1.408  -3.597   0.412  0.00  0.00     0.197 C 
ATOM     20  O46 ZIN AC000      -2.525  -3.967   0.718  0.00  0.00    -0.286 OA
ENDROOT
BRANCH  16  21
ATOM     21  O25 ZIN AC000       3.765  -7.179  -0.521  0.00  0.00    -0.351 OA
BRANCH  21  22
ATOM     22  C26 ZIN AC000       5.008  -7.314  -1.213  0.00  0.00     0.263 C 
ATOM     23  O41 ZIN AC000       5.231  -8.689  -1.530  0.00  0.00    -0.354 OA
ATOM     24  C38 ZIN AC000       5.264  -9.552  -0.392  0.00  0.00     0.151 C 
ATOM     25  C35 ZIN AC000       6.411  -9.135   0.531  0.00  0.00     0.177 C 
ATOM     26  C40 ZIN AC000       5.478 -10.996  -0.852  0.00  0.00     0.042 C 
ATOM     27  C29 ZIN AC000       6.221  -7.670   0.939  0.00  0.00     0.219 C 
ATOM     28  C28 ZIN AC000       6.146  -6.806  -0.323  0.00  0.00     0.096 C 
BRANCH  25  29
ATOM     29  O37 ZIN AC000       7.656  -9.281  -0.156  0.00  0.00    -0.391 OA
ATOM     30  H64 ZIN AC000       7.842 -10.185  -0.444  0.00  0.00     0.210 HD
ENDBRANCH  25  29
BRANCH  27  31
ATOM     31  N31 ZIN AC000       7.356  -7.237   1.765  0.00  0.00    -0.072 N 
ATOM     32  H32 ZIN AC000       7.231  -6.271   2.027  0.00  0.00     0.274 HD
ATOM     33  H33 ZIN AC000       7.404  -7.807   2.596  0.00  0.00     0.274 HD
ATOM     34  H34 ZIN AC000       8.211  -7.335   1.239  0.00  0.00     0.274 HD
ENDBRANCH  27  31
ENDBRANCH  21  22
ENDBRANCH  16  21
BRANCH  10  35
ATOM     35  O13 ZIN AC000       3.213  -4.737  -0.625  0.00  0.00    -0.359 OA
ATOM     36  H53 ZIN AC000       3.697  -4.816   0.209  0.00  0.00     0.217 HD
ENDBRANCH  10  35
BRANCH  14  37
ATOM     37  O18 ZIN AC000       0.431 -10.274  -2.142  0.00  0.00    -0.382 OA
ATOM     38  H56 ZIN AC000      -0.423 -10.412  -2.574  0.00  0.00     0.211 HD
ENDBRANCH  14  37
BRANCH  14  39
ATOM     39  C19 ZIN AC000       0.890  -8.256  -3.359  0.00  0.00     0.157 C 
ATOM     40  C20 ZIN AC000       1.402  -9.050  -4.533  0.00  0.00     0.094 C 
ATOM     41  O21 ZIN AC000       0.557  -7.105  -3.506  0.00  0.00    -0.295 OA
ENDBRANCH  14  39
BRANCH  17  42
ATOM     42  O43 ZIN AC000      -2.055  -6.249  -0.303  0.00  0.00    -0.359 OA
ATOM     43  H68 ZIN AC000      -2.308  -6.618   0.555  0.00  0.00     0.217 HD
ENDBRANCH  17  42
BRANCH   1  44
ATOM     44  O2  ZIN AC000       1.942  -0.043   0.412  0.00  0.00    -0.355 OA
ATOM     45  C1  ZIN AC000       2.211   1.357   0.495  0.00  0.00     0.210 C 
ENDBRANCH   1  44
TORSDOF 9
