REMARK  4 active torsions:
REMARK  status: ('A' for Active; 'I' for Inactive)
REMARK    1  A    between atoms: C2_2  and  C4_3 
REMARK    2  A    between atoms: C2_2  and  C6_5 
REMARK    3  A    between atoms: C4_3  and  S5_4 
REMARK       I    between atoms: C6_5  and  N8_7 
REMARK    4  A    between atoms: C12_11  and  C14_12 
ROOT
ATOM      1  C6  ZIN AC000       0.707  -0.490  -1.238  0.00  0.00     0.225 C 
ATOM      2  O7  ZIN AC000       1.704  -1.174  -1.140  0.00  0.00    -0.273 OA
ATOM      3  N8  ZIN AC000       0.231  -0.164  -2.456  0.00  0.00    -0.337 N 
ATOM      4  C9  ZIN AC000      -0.961   0.662  -2.719  0.00  0.00     0.127 C 
ATOM      5  C10 ZIN AC000      -1.432   0.239  -4.133  0.00  0.00     0.022 C 
ATOM      6  C11 ZIN AC000      -0.079   0.010  -4.856  0.00  0.00     0.038 C 
ATOM      7  C12 ZIN AC000       0.818  -0.569  -3.742  0.00  0.00     0.188 C 
ENDROOT
BRANCH   1   8
ATOM      8  C2  ZIN AC000       0.002  -0.004   0.002  0.00  0.00     0.083 C 
ATOM      9  C1  ZIN AC000      -0.019   1.526   0.010  0.00  0.00     0.020 C 
BRANCH   8  10
ATOM     10  C4  ZIN AC000       0.742  -0.511   1.242  0.00  0.00     0.084 C 
BRANCH  10  11
ATOM     11  S5  ZIN AC000      -0.187  -0.052   2.730  0.00  0.00    -0.181 SA
ATOM     12  H22 ZIN AC000       0.568  -0.553   3.724  0.00  0.00     0.101 HD
ENDBRANCH  10  11
ENDBRANCH   8  10
ENDBRANCH   1   8
BRANCH   7  13
ATOM     13  C14 ZIN AC000       2.216  -0.022  -3.873  0.00  0.00     0.196 C 
ATOM     14  O15 ZIN AC000       2.517   1.022  -3.321  0.00  0.00    -0.646 OA
ATOM     15  O16 ZIN AC000       3.046  -0.625  -4.532  0.00  0.00    -0.646 OA
ENDBRANCH   7  13
TORSDOF 4
