REMARK  13 active torsions:
REMARK  status: ('A' for Active; 'I' for Inactive)
REMARK    1  A    between atoms: N1_1  and  C2_2 
REMARK    2  A    between atoms: C2_2  and  N3_3 
REMARK    3  A    between atoms: C2_2  and  C6_6 
REMARK    4  A    between atoms: C9_9  and  O10_10 
REMARK    5  A    between atoms: O10_10  and  C11_11 
REMARK    6  A    between atoms: C11_11  and  C12_12 
REMARK    7  A    between atoms: C12_12  and  C13_13 
REMARK    8  A    between atoms: C13_13  and  C14_14 
REMARK    9  A    between atoms: C14_14  and  C15_15 
REMARK   10  A    between atoms: C15_15  and  O16_16 
REMARK   11  A    between atoms: O16_16  and  C17_17 
REMARK   12  A    between atoms: C20_20  and  C21_21 
REMARK   13  A    between atoms: C21_21  and  N22_22 
ROOT
ATOM      1  C13 ZIN AC000      -6.199  -6.148  -1.178  0.00  0.00     0.004 C 
ENDROOT
BRANCH   1   2
ATOM      2  C12 ZIN AC000      -6.202  -4.779  -0.495  0.00  0.00     0.027 C 
BRANCH   2   3
ATOM      3  C11 ZIN AC000      -4.811  -4.152  -0.605  0.00  0.00     0.175 C 
BRANCH   3   4
ATOM      4  O10 ZIN AC000      -4.813  -2.873   0.033  0.00  0.00    -0.351 OA
BRANCH   4   5
ATOM      5  C9  ZIN AC000      -3.647  -2.178   0.026  0.00  0.00     0.068 A 
ATOM      6  C8  ZIN AC000      -3.582  -0.928   0.629  0.00  0.00     0.037 A 
ATOM      7  C7  ZIN AC000      -2.400  -0.220   0.623  0.00  0.00     0.018 A 
ATOM      8  C6  ZIN AC000      -1.267  -0.760   0.010  0.00  0.00     0.007 A 
ATOM      9  C29 ZIN AC000      -1.339  -2.014  -0.600  0.00  0.00     0.018 A 
ATOM     10  C28 ZIN AC000      -2.522  -2.719  -0.585  0.00  0.00     0.037 A 
BRANCH   8  11
ATOM     11  C2  ZIN AC000       0.002  -0.004   0.002  0.00  0.00     0.102 C 
BRANCH  11  12
ATOM     12  N1  ZIN AC000      -0.016   1.328   0.009  0.00  0.00    -0.385 N 
ATOM     13  H30 ZIN AC000       0.817   1.825   0.004  0.00  0.00     0.157 HD
ATOM     14  H31 ZIN AC000      -0.863   1.802   0.016  0.00  0.00     0.157 HD
ENDBRANCH  11  12
BRANCH  11  15
ATOM     15  N3  ZIN AC000       1.165  -0.654  -0.013  0.00  0.00    -0.385 N 
ATOM     16  H4  ZIN AC000       1.998  -0.158  -0.018  0.00  0.00     0.157 HD
ATOM     17  H5  ZIN AC000       1.178  -1.624  -0.018  0.00  0.00     0.157 HD
ENDBRANCH  11  15
ENDBRANCH   8  11
ENDBRANCH   4   5
ENDBRANCH   3   4
ENDBRANCH   2   3
ENDBRANCH   1   2
BRANCH   1  18
ATOM     18  C14 ZIN AC000      -7.591  -6.775  -1.069  0.00  0.00     0.027 C 
BRANCH  18  19
ATOM     19  C15 ZIN AC000      -7.588  -8.144  -1.752  0.00  0.00     0.175 C 
BRANCH  19  20
ATOM     20  O16 ZIN AC000      -8.888  -8.730  -1.650  0.00  0.00    -0.351 OA
BRANCH  20  21
ATOM     21  C17 ZIN AC000      -9.057  -9.955  -2.209  0.00  0.00     0.068 A 
ATOM     22  C27 ZIN AC000     -10.296 -10.581  -2.145  0.00  0.00     0.037 A 
ATOM     23  C26 ZIN AC000     -10.473 -11.822  -2.715  0.00  0.00     0.018 A 
ATOM     24  C20 ZIN AC000      -9.402 -12.456  -3.350  0.00  0.00     0.007 A 
ATOM     25  C19 ZIN AC000      -8.157 -11.826  -3.407  0.00  0.00     0.018 A 
ATOM     26  C18 ZIN AC000      -7.989 -10.583  -2.839  0.00  0.00     0.037 A 
BRANCH  24  27
ATOM     27  C21 ZIN AC000      -9.586 -13.790  -3.958  0.00  0.00     0.102 C 
ATOM     28  N23 ZIN AC000      -8.860 -14.145  -5.017  0.00  0.00    -0.385 N 
ATOM     29  H24 ZIN AC000      -8.211 -13.528  -5.389  0.00  0.00     0.157 HD
ATOM     30  H25 ZIN AC000      -8.981 -15.021  -5.416  0.00  0.00     0.157 HD
BRANCH  27  31
ATOM     31  N22 ZIN AC000     -10.478 -14.638  -3.447  0.00  0.00    -0.385 N 
ATOM     32  H46 ZIN AC000     -11.007 -14.379  -2.676  0.00  0.00     0.157 HD
ATOM     33  H47 ZIN AC000     -10.599 -15.513  -3.846  0.00  0.00     0.157 HD
ENDBRANCH  27  31
ENDBRANCH  24  27
ENDBRANCH  20  21
ENDBRANCH  19  20
ENDBRANCH  18  19
ENDBRANCH   1  18
TORSDOF 13
