REMARK  2 active torsions:
REMARK  status: ('A' for Active; 'I' for Inactive)
REMARK    1  A    between atoms: N8_8  and  C9_9 
REMARK    2  A    between atoms: C9_9  and  C10_10 
ROOT
ATOM      1  C10 <0> d          -2.970  -0.399  -1.859  0.00  0.00     0.059 A 
ATOM      2  C11 <0> d          -2.149  -1.057  -2.707  0.00  0.00     0.126 A 
ATOM      3 Cl12 <0> d          -0.732  -1.864  -2.111  0.00  0.00    -0.076 Cl
ATOM      4  C13 <0> d          -2.461  -1.080  -4.088  0.00  0.00     0.273 A 
ATOM      5  O14 <0> d          -1.736  -1.667  -4.872  0.00  0.00    -0.266 OA
ATOM      6  N15 <0> d          -3.567  -0.447  -4.528  0.00  0.00    -0.274 N 
ATOM      7  C16 <0> d          -4.368   0.201  -3.661  0.00  0.00     0.327 A 
ATOM      8  O17 <0> d          -5.362   0.767  -4.072  0.00  0.00    -0.247 OA
ATOM      9  N18 <0> d          -4.086   0.227  -2.346  0.00  0.00    -0.309 N 
ATOM     10  H27 <0> d          -3.787  -0.458  -5.473  0.00  0.00     0.173 HD
ATOM     11  H28 <0> d          -4.676   0.699  -1.737  0.00  0.00     0.170 HD
ENDROOT
BRANCH   1  12
ATOM     12  C9  <0> d          -2.661  -0.360  -0.385  0.00  0.00     0.183 C 
BRANCH  12  13
ATOM     13  N8  <0> d          -2.381   1.020   0.019  0.00  0.00    -0.365 N 
ATOM     14  C4  <0> d          -1.140   1.597   0.016  0.00  0.00     0.073 C 
ATOM     15  N1  <0> d          -0.011   0.966   0.007  0.00  0.00    -0.389 N 
ATOM     16  C5  <0> d          -1.315   3.103   0.018  0.00  0.00     0.077 C 
ATOM     17  H2  <0> d           0.002  -0.004   0.002  0.00  0.00     0.157 HD
ATOM     18  H3  <0> d           0.822   1.462   0.002  0.00  0.00     0.157 HD
ATOM     19  C6  <0> d          -2.661   3.305   0.751  0.00  0.00     0.027 C 
ATOM     20  C7  <0> d          -3.394   1.974   0.489  0.00  0.00     0.125 C 
ENDBRANCH  12  13
ENDBRANCH   1  12
TORSDOF 2
