REMARK  4 active torsions:
REMARK  status: ('A' for Active; 'I' for Inactive)
REMARK    1  A    between atoms: N4_4  and  C5_5 
REMARK    2  A    between atoms: C8_7  and  O10_8 
REMARK    3  A    between atoms: C11_9  and  C13_10 
REMARK    4  A    between atoms: C13_10  and  O14_11 
ROOT
ATOM      1  C1  ZIN AC000      -0.018   1.503   0.010  0.00  0.00     0.056 C 
ATOM      2  C2  ZIN AC000       0.002  -0.004   0.002  0.00  0.00     0.022 A 
ATOM      3  C3  ZIN AC000      -1.153  -0.704   0.004  0.00  0.00     0.110 A 
ATOM      4  N4  ZIN AC000      -1.116  -2.072  -0.004  0.00  0.00    -0.282 N 
ATOM      5  C16 ZIN AC000       0.060  -2.726  -0.013  0.00  0.00     0.331 A 
ATOM      6  O17 ZIN AC000       0.069  -3.942  -0.020  0.00  0.00    -0.246 OA
ATOM      7  N18 ZIN AC000       1.226  -2.053  -0.016  0.00  0.00    -0.275 N 
ATOM      8  C19 ZIN AC000       1.232  -0.705  -0.013  0.00  0.00     0.256 A 
ATOM      9  O20 ZIN AC000       2.287  -0.095  -0.016  0.00  0.00    -0.267 OA
ATOM     10  H31 ZIN AC000       2.064  -2.540  -0.023  0.00  0.00     0.173 HD
ENDROOT
BRANCH   4  11
ATOM     11  C5  ZIN AC000      -2.369  -2.831  -0.002  0.00  0.00     0.235 C 
ATOM     12  O15 ZIN AC000      -3.503  -1.941  -0.076  0.00  0.00    -0.356 OA
ATOM     13  C11 ZIN AC000      -4.609  -2.714  -0.577  0.00  0.00     0.176 C 
ATOM     14  C8  ZIN AC000      -4.023  -3.866  -1.415  0.00  0.00     0.153 C 
ATOM     15  C7  ZIN AC000      -2.490  -3.686  -1.289  0.00  0.00     0.088 C 
BRANCH  13  16
ATOM     16  C13 ZIN AC000      -5.507  -1.838  -1.453  0.00  0.00     0.198 C 
BRANCH  16  17
ATOM     17  O14 ZIN AC000      -6.137  -0.843  -0.644  0.00  0.00    -0.398 OA
ATOM     18  H30 ZIN AC000      -6.723  -0.250  -1.135  0.00  0.00     0.209 HD
ENDBRANCH  16  17
ENDBRANCH  13  16
BRANCH  14  19
ATOM     19  O10 ZIN AC000      -4.423  -5.130  -0.881  0.00  0.00    -0.393 OA
ATOM     20  H27 ZIN AC000      -4.036  -5.890  -1.337  0.00  0.00     0.210 HD
ENDBRANCH  14  19
ENDBRANCH   4  11
TORSDOF 4
