REMARK  10 active torsions:
REMARK  status: ('A' for Active; 'I' for Inactive)
REMARK    1  A    between atoms: O2_2  and  C3_3 
REMARK    2  A    between atoms: C3_3  and  C4_4 
REMARK    3  A    between atoms: C4_4  and  O5_5 
REMARK    4  A    between atoms: O5_5  and  C6_6 
REMARK    5  A    between atoms: C6_6  and  C8_8 
REMARK    6  A    between atoms: C14_14  and  C15_15 
REMARK    7  A    between atoms: C15_15  and  O17_17 
REMARK    8  A    between atoms: O17_17  and  C18_18 
REMARK    9  A    between atoms: C21_21  and  C23_22 
REMARK   10  A    between atoms: C27_26  and  N28_27 
ROOT
ATOM      1  C8  ZIN AC000       2.046  -4.336  -1.583  0.00  0.00     0.052 C 
ATOM      2  C9  ZIN AC000       2.307  -5.652  -1.669  0.00  0.00     0.018 C 
ATOM      3  C10 ZIN AC000       1.679  -6.602  -0.682  0.00  0.00     0.069 C 
ATOM      4  N11 ZIN AC000       3.137  -6.139  -2.641  0.00  0.00    -0.362 N 
ATOM      5  C12 ZIN AC000       3.989  -5.300  -3.306  0.00  0.00     0.018 C 
ATOM      6  C13 ZIN AC000       5.155  -5.874  -4.068  0.00  0.00     0.069 C 
ATOM      7  C14 ZIN AC000       3.797  -3.970  -3.289  0.00  0.00     0.052 C 
ATOM      8  C21 ZIN AC000       2.638  -3.355  -2.554  0.00  0.00     0.101 C 
ATOM      9  H42 ZIN AC000       3.122  -7.084  -2.860  0.00  0.00     0.165 HD
ENDROOT
BRANCH   8  10
ATOM     10  C23 ZIN AC000       1.588  -2.932  -3.548  0.00  0.00    -0.042 A 
ATOM     11  C31 ZIN AC000       1.210  -1.604  -3.632  0.00  0.00     0.044 A 
ATOM     12  C27 ZIN AC000       0.250  -1.216  -4.547  0.00  0.00     0.103 A 
ATOM     13  C26 ZIN AC000      -0.339  -2.155  -5.372  0.00  0.00     0.036 A 
ATOM     14  C25 ZIN AC000       0.035  -3.483  -5.285  0.00  0.00     0.003 A 
ATOM     15  C24 ZIN AC000       0.998  -3.871  -4.372  0.00  0.00     0.008 A 
BRANCH  12  16
ATOM     16  N28 ZIN AC000      -0.150   0.206  -4.641  0.00  0.00    -0.116 N 
ATOM     17  O29 ZIN AC000      -0.999   0.549  -5.445  0.00  0.00    -0.532 OA
ATOM     18  O30 ZIN AC000       0.369   1.034  -3.914  0.00  0.00    -0.532 OA
ENDBRANCH  12  16
ENDBRANCH   8  10
BRANCH   1  19
ATOM     19  C6  ZIN AC000       1.189  -3.867  -0.560  0.00  0.00     0.292 C 
ATOM     20  O7  ZIN AC000       1.652  -3.278   0.398  0.00  0.00    -0.259 OA
BRANCH  19  21
ATOM     21  O5  ZIN AC000      -0.142  -4.072  -0.648  0.00  0.00    -0.316 OA
BRANCH  21  22
ATOM     22  C4  ZIN AC000      -0.947  -3.570   0.421  0.00  0.00     0.205 C 
BRANCH  22  23
ATOM     23  C3  ZIN AC000      -2.417  -3.895   0.147  0.00  0.00     0.193 C 
BRANCH  23  24
ATOM     24  O2  ZIN AC000      -2.603  -5.312   0.166  0.00  0.00    -0.394 OA
ATOM     25  C1  ZIN AC000      -3.949  -5.724  -0.079  0.00  0.00     0.201 C 
ENDBRANCH  23  24
ENDBRANCH  22  23
ENDBRANCH  21  22
ENDBRANCH  19  21
ENDBRANCH   1  19
BRANCH   7  26
ATOM     26  C15 ZIN AC000       4.702  -3.132  -3.982  0.00  0.00     0.292 C 
ATOM     27  O16 ZIN AC000       5.641  -3.616  -4.585  0.00  0.00    -0.259 OA
BRANCH  26  28
ATOM     28  O17 ZIN AC000       4.523  -1.794  -3.974  0.00  0.00    -0.313 OA
BRANCH  28  29
ATOM     29  C18 ZIN AC000       5.474  -1.008  -4.694  0.00  0.00     0.124 C 
ATOM     30  C19 ZIN AC000       4.798   0.261  -5.215  0.00  0.00     0.040 C 
ATOM     31  C20 ZIN AC000       6.628  -0.626  -3.765  0.00  0.00     0.040 C 
ENDBRANCH  28  29
ENDBRANCH  26  28
ENDBRANCH   7  26
TORSDOF 10
