REMARK  6 active torsions:
REMARK  status: ('A' for Active; 'I' for Inactive)
REMARK    1  A    between atoms: C2_2  and  O4_4 
REMARK    2  A    between atoms: O4_4  and  C5_5 
REMARK    3  A    between atoms: C7_6  and  N9_7 
REMARK    4  A    between atoms: C26_21  and  O28_22 
REMARK    5  A    between atoms: O28_22  and  C29_23 
REMARK    6  A    between atoms: C32_26  and  N34_27 
ROOT
ATOM      1  C5  ZIN AC000       5.509   1.897  -1.851  0.00  0.00     0.171 C 
ATOM      2  C7  ZIN AC000       4.267   2.472  -1.125  0.00  0.00     0.220 C 
ATOM      3  C16 ZIN AC000       3.092   1.504  -1.437  0.00  0.00     0.042 C 
ATOM      4  C17 ZIN AC000       3.807   0.188  -1.759  0.00  0.00     0.003 C 
ATOM      5  C19 ZIN AC000       3.020  -0.808  -2.589  0.00  0.00    -0.005 C 
ATOM      6  C21 ZIN AC000       1.772  -1.264  -1.831  0.00  0.00     0.006 C 
ATOM      7  C22 ZIN AC000       1.023  -2.306  -2.663  0.00  0.00     0.006 C 
ATOM      8  C23 ZIN AC000       1.933  -3.510  -2.913  0.00  0.00    -0.004 C 
ATOM      9  C25 ZIN AC000       1.183  -4.552  -3.747  0.00  0.00     0.040 C 
ATOM     10  C26 ZIN AC000       2.093  -5.756  -3.996  0.00  0.00     0.163 C 
ATOM     11  C32 ZIN AC000       3.344  -5.302  -4.752  0.00  0.00     0.220 C 
ATOM     12  C41 ZIN AC000       4.094  -4.262  -3.918  0.00  0.00     0.046 C 
ATOM     13  C42 ZIN AC000       3.184  -3.057  -3.668  0.00  0.00    -0.034 C 
ATOM     14  C43 ZIN AC000       2.779  -2.437  -5.007  0.00  0.00     0.016 C 
ATOM     15  C44 ZIN AC000       3.942  -2.009  -2.853  0.00  0.00    -0.002 C 
ATOM     16  C46 ZIN AC000       5.214  -1.596  -3.586  0.00  0.00     0.007 C 
ATOM     17  C47 ZIN AC000       5.955  -0.477  -2.835  0.00  0.00     0.012 C 
ATOM     18  C48 ZIN AC000       5.003   0.682  -2.620  0.00  0.00    -0.011 C 
ATOM     19  C49 ZIN AC000       4.417   1.124  -3.963  0.00  0.00     0.018 C 
ENDROOT
BRANCH   2  20
ATOM     20  N9  ZIN AC000       3.962   3.816  -1.633  0.00  0.00    -0.064 N 
ATOM     21  C15 ZIN AC000       3.745   3.752  -3.083  0.00  0.00     0.237 C 
ATOM     22  C14 ZIN AC000       3.348   5.135  -3.605  0.00  0.00     0.028 C 
ATOM     23  C13 ZIN AC000       4.471   6.131  -3.299  0.00  0.00     0.003 C 
ATOM     24  C12 ZIN AC000       4.740   6.135  -1.792  0.00  0.00     0.028 C 
ATOM     25  C11 ZIN AC000       5.085   4.715  -1.337  0.00  0.00     0.237 C 
ATOM     26  C10 ZIN AC000       2.748   4.322  -0.979  0.00  0.00     0.273 C 
ENDBRANCH   2  20
BRANCH   1  27
ATOM     27  O4  ZIN AC000       6.055   2.882  -2.769  0.00  0.00    -0.313 OA
BRANCH  27  28
ATOM     28  C2  ZIN AC000       7.346   3.213  -2.609  0.00  0.00     0.255 C 
ATOM     29  C1  ZIN AC000       8.013   4.140  -3.592  0.00  0.00     0.126 C 
ATOM     30  O3  ZIN AC000       7.973   2.767  -1.678  0.00  0.00    -0.266 OA
ENDBRANCH  27  28
ENDBRANCH   1  27
BRANCH  11  31
ATOM     31  N34 ZIN AC000       2.951  -4.710  -6.037  0.00  0.00    -0.064 N 
ATOM     32  C40 ZIN AC000       1.612  -4.121  -5.914  0.00  0.00     0.237 C 
ATOM     33  C39 ZIN AC000       1.231  -3.431  -7.226  0.00  0.00     0.028 C 
ATOM     34  C38 ZIN AC000       1.235  -4.463  -8.358  0.00  0.00     0.003 C 
ATOM     35  C37 ZIN AC000       2.615  -5.123  -8.429  0.00  0.00     0.028 C 
ATOM     36  C36 ZIN AC000       2.944  -5.750  -7.072  0.00  0.00     0.237 C 
ATOM     37  C35 ZIN AC000       3.912  -3.662  -6.406  0.00  0.00     0.273 C 
ENDBRANCH  11  31
BRANCH  10  38
ATOM     38  O28 ZIN AC000       2.481  -6.341  -2.724  0.00  0.00    -0.314 OA
BRANCH  38  39
ATOM     39  C29 ZIN AC000       1.686  -7.302  -2.228  0.00  0.00     0.255 C 
ATOM     40  C30 ZIN AC000       2.025  -7.954  -0.912  0.00  0.00     0.126 C 
ATOM     41  O31 ZIN AC000       0.699  -7.643  -2.835  0.00  0.00    -0.266 OA
ENDBRANCH  38  39
ENDBRANCH  10  38
TORSDOF 6
