REMARK  3 active torsions:
REMARK  status: ('A' for Active; 'I' for Inactive)
REMARK    1  A    between atoms: N1_1  and  C5_5 
REMARK    2  A    between atoms: C5_5  and  C6_6 
REMARK    3  A    between atoms: C6_6  and  S7_7 
ROOT
ATOM      1  N1  <0> d          -0.012   1.005   0.008  0.00  0.00    -0.079 N 
ATOM      2  H2  <0> d           0.002  -0.004   0.002  0.00  0.00     0.274 HD
ATOM      3  H3  <0> d           0.935   1.354   0.000  0.00  0.00     0.274 HD
ATOM      4  H4  <0> d          -0.500   1.339  -0.810  0.00  0.00     0.274 HD
ENDROOT
BRANCH   1   5
ATOM      5  C5  <0> d          -0.699   1.479   1.216  0.00  0.00     0.239 C 
BRANCH   5   6
ATOM      6  C6  <0> d           0.041   0.972   2.456  0.00  0.00     0.098 C 
BRANCH   6   7
ATOM      7  S7  <0> d          -0.808   1.557   3.948  0.00  0.00    -0.181 SA
ATOM      8  H12 <0> d          -0.061   1.044   4.942  0.00  0.00     0.101 HD
ENDBRANCH   6   7
ENDBRANCH   5   6
ENDBRANCH   1   5
TORSDOF 3
