REMARK  3 active torsions:
REMARK  status: ('A' for Active; 'I' for Inactive)
REMARK    1  A    between atoms: C7_7  and  N8_8 
REMARK    2  A    between atoms: N8_8  and  C9_9 
REMARK    3  A    between atoms: C14_14  and  C15_15 
ROOT
ATOM      1  N8  <0> d           0.042  -2.800   2.344  0.00  0.00    -0.353 N 
ATOM      2  H25 <0> d          -0.168  -2.331   3.167  0.00  0.00     0.166 HD
ENDROOT
BRANCH   1   3
ATOM      3  C7  <0> d           0.112  -2.099   1.137  0.00  0.00     0.077 A 
ATOM      4  C5  <0> d          -0.042  -2.771  -0.070  0.00  0.00     0.062 A 
ATOM      5  C4  <0> d           0.029  -2.075  -1.262  0.00  0.00     0.027 A 
ATOM      6 Cl6  <0> d          -0.321  -4.485  -0.080  0.00  0.00    -0.082 Cl
ATOM      7  C3  <0> d           0.251  -0.709  -1.254  0.00  0.00     0.010 A 
ATOM      8  C2  <0> d           0.404  -0.037  -0.056  0.00  0.00    -0.038 A 
ATOM      9  C1  <0> d           0.646   1.451  -0.054  0.00  0.00     0.050 C 
ATOM     10  C18 <0> d           0.341  -0.728   1.140  0.00  0.00     0.068 A 
ATOM     11 Cl19 <0> d           0.535   0.117   2.643  0.00  0.00    -0.081 Cl
ENDBRANCH   1   3
BRANCH   1  12
ATOM     12  C9  <0> d           0.274  -4.168   2.366  0.00  0.00     0.049 A 
ATOM     13  C14 <0> d           1.573  -4.669   2.168  0.00  0.00     0.067 A 
ATOM     14  C13 <0> d           1.791  -6.050   2.199  0.00  0.00     0.021 A 
ATOM     15  C12 <0> d           0.736  -6.908   2.411  0.00  0.00     0.001 A 
ATOM     16  C11 <0> d          -0.545  -6.411   2.600  0.00  0.00     0.002 A 
ATOM     17  C10 <0> d          -0.778  -5.052   2.578  0.00  0.00     0.030 A 
BRANCH  13  18
ATOM     18  C15 <0> d           2.695  -3.746   1.942  0.00  0.00     0.211 C 
ATOM     19  O16 <0> d           3.803  -4.187   1.668  0.00  0.00    -0.644 OA
ATOM     20  O17 <0> d           2.521  -2.538   2.028  0.00  0.00    -0.644 OA
ENDBRANCH  13  18
ENDBRANCH   1  12
TORSDOF 3
