REMARK  5 active torsions:
REMARK  status: ('A' for Active; 'I' for Inactive)
REMARK    1  A    between atoms: C6_6  and  C7_7 
REMARK    2  A    between atoms: C7_7  and  N8_8 
REMARK    3  A    between atoms: N11_11  and  C12_12 
REMARK    4  A    between atoms: C12_12  and  C14_13 
REMARK    5  A    between atoms: C12_12  and  C20_19 
ROOT
ATOM      1  N8  <0> d           1.836  -2.596   2.519  0.00  0.00     0.096 N 
ATOM      2  C9  <0> d           2.644  -3.263   1.489  0.00  0.00     0.303 C 
ATOM      3  C10 <0> d           4.022  -3.600   2.063  0.00  0.00     0.304 C 
ATOM      4  N11 <0> d           3.861  -4.463   3.242  0.00  0.00     0.105 N 
ATOM      5  C27 <0> d           3.053  -3.795   4.273  0.00  0.00     0.304 C 
ATOM      6  C28 <0> d           1.675  -3.458   3.698  0.00  0.00     0.303 C 
ENDROOT
BRANCH   4   7
ATOM      7  C12 <0> d           5.166  -4.870   3.778  0.00  0.00     0.289 C 
BRANCH   7   8
ATOM      8  C14 <0> d           5.942  -5.598   2.711  0.00  0.00    -0.021 A 
ATOM      9  C19 <0> d           7.277  -5.303   2.504  0.00  0.00     0.010 A 
ATOM     10  C18 <0> d           7.989  -5.973   1.528  0.00  0.00     0.001 A 
ATOM     11  C17 <0> d           7.366  -6.934   0.754  0.00  0.00     0.000 A 
ATOM     12  C16 <0> d           6.030  -7.226   0.958  0.00  0.00     0.001 A 
ATOM     13  C15 <0> d           5.319  -6.558   1.937  0.00  0.00     0.010 A 
ENDBRANCH   7   8
BRANCH   7  14
ATOM     14  C20 <0> d           4.961  -5.782   4.961  0.00  0.00    -0.021 A 
ATOM     15  C26 <0> d           5.724  -5.617   6.101  0.00  0.00     0.011 A 
ATOM     16  C25 <0> d           5.532  -6.449   7.188  0.00  0.00     0.024 A 
ATOM     17  C23 <0> d           4.584  -7.455   7.130  0.00  0.00     0.034 A 
ATOM     18  C22 <0> d           3.825  -7.623   5.986  0.00  0.00     0.024 A 
ATOM     19 Cl24 <0> d           4.348  -8.505   8.492  0.00  0.00    -0.084 Cl
ATOM     20  C21 <0> d           4.013  -6.787   4.902  0.00  0.00     0.011 A 
ENDBRANCH   7  14
ENDBRANCH   4   7
BRANCH   1  21
ATOM     21  C7  <0> d           0.531  -2.188   1.983  0.00  0.00     0.311 C 
BRANCH  21  22
ATOM     22  C6  <0> d           0.724  -1.517   0.647  0.00  0.00    -0.030 A 
ATOM     23  C5  <0> d           0.706  -2.269  -0.513  0.00  0.00     0.009 A 
ATOM     24  C4  <0> d           0.883  -1.655  -1.738  0.00  0.00     0.001 A 
ATOM     25  C3  <0> d           1.077  -0.287  -1.804  0.00  0.00     0.007 A 
ATOM     26  C2  <0> d           1.093   0.465  -0.644  0.00  0.00    -0.061 A 
ATOM     27  C1  <0> d           1.305   1.955  -0.716  0.00  0.00     0.048 C 
ATOM     28  C29 <0> d           0.922  -0.151   0.582  0.00  0.00     0.015 A 
ENDBRANCH  21  22
ENDBRANCH   1  21
TORSDOF 5
