REMARK  5 active torsions:
REMARK  status: ('A' for Active; 'I' for Inactive)
REMARK    1  A    between atoms: C2_2  and  O3_3 
REMARK    2  A    between atoms: O3_3  and  C4_4 
REMARK    3  A    between atoms: C13_13  and  C14_14 
REMARK       I    between atoms: C14_14  and  N16_16 
REMARK    4  A    between atoms: N16_16  and  C17_17 
REMARK    5  A    between atoms: C28_26  and  C30_27 
ROOT
ATOM      1  C14 ZIN AC000      -3.968  -1.523   0.032  0.00  0.00     0.256 C 
ATOM      2  O15 ZIN AC000      -4.451  -1.173   1.093  0.00  0.00    -0.268 OA
ATOM      3  N16 ZIN AC000      -4.521  -1.114  -1.127  0.00  0.00    -0.342 N 
ATOM      4  H44 ZIN AC000      -4.136  -1.394  -1.973  0.00  0.00     0.163 HD
ENDROOT
BRANCH   1   5
ATOM      5  C13 ZIN AC000      -2.782  -2.391   0.016  0.00  0.00     0.076 A 
ATOM      6  C4  ZIN AC000      -1.498  -1.845   0.006  0.00  0.00     0.085 A 
ATOM      7  C5  ZIN AC000      -0.377  -2.676  -0.003  0.00  0.00     0.039 A 
ATOM      8  C6  ZIN AC000      -0.490  -4.029  -0.009  0.00  0.00     0.015 A 
ATOM      9  C7  ZIN AC000      -1.754  -4.647  -0.006  0.00  0.00    -0.025 A 
ATOM     10  C12 ZIN AC000      -2.922  -3.847   0.004  0.00  0.00    -0.007 A 
ATOM     11  C8  ZIN AC000      -1.881  -6.046  -0.012  0.00  0.00     0.012 A 
ATOM     12  C11 ZIN AC000      -4.181  -4.459   0.008  0.00  0.00     0.013 A 
ATOM     13  C10 ZIN AC000      -4.268  -5.820   0.002  0.00  0.00     0.001 A 
ATOM     14  C9  ZIN AC000      -3.121  -6.610  -0.008  0.00  0.00     0.001 A 
BRANCH   6  15
ATOM     15  O3  ZIN AC000      -1.339  -0.499   0.012  0.00  0.00    -0.350 OA
BRANCH  15  16
ATOM     16  C2  ZIN AC000       0.002  -0.004   0.002  0.00  0.00     0.171 C 
ATOM     17  C1  ZIN AC000      -0.019   1.526   0.010  0.00  0.00     0.034 C 
ENDBRANCH  15  16
ENDBRANCH   6  15
ENDBRANCH   1   5
BRANCH   3  18
ATOM     18  C17 ZIN AC000      -5.703  -0.249  -1.111  0.00  0.00     0.199 C 
ATOM     19  C22 ZIN AC000      -5.885   0.570  -2.392  0.00  0.00     0.160 C 
ATOM     20  N21 ZIN AC000      -7.032  -0.315  -2.701  0.00  0.00    -0.219 NA
ATOM     21  S24 ZIN AC000      -4.654   0.230  -3.705  0.00  0.00    -0.135 SA
ATOM     22  C19 ZIN AC000      -6.984  -0.959  -1.496  0.00  0.00     0.227 C 
ATOM     23  C28 ZIN AC000      -6.861  -1.149  -3.895  0.00  0.00     0.186 C 
ATOM     24  O20 ZIN AC000      -7.691  -1.779  -0.949  0.00  0.00    -0.277 OA
ATOM     25  C25 ZIN AC000      -5.885  -0.452  -4.894  0.00  0.00     0.029 C 
ATOM     26  C26 ZIN AC000      -6.578   0.664  -5.679  0.00  0.00     0.029 C 
ATOM     27  C27 ZIN AC000      -5.243  -1.472  -5.836  0.00  0.00     0.029 C 
BRANCH  23  28
ATOM     28  C30 ZIN AC000      -8.202  -1.333  -4.555  0.00  0.00     0.193 C 
ATOM     29  O31 ZIN AC000      -8.438  -2.352  -5.182  0.00  0.00    -0.647 OA
ATOM     30  O32 ZIN AC000      -9.052  -0.464  -4.463  0.00  0.00    -0.647 OA
ENDBRANCH  23  28
ENDBRANCH   3  18
TORSDOF 5
