REMARK  4 active torsions:
REMARK  status: ('A' for Active; 'I' for Inactive)
REMARK    1  A    between atoms: N2_2  and  C3_3 
REMARK    2  A    between atoms: C3_3  and  C4_4 
REMARK    3  A    between atoms: C14_14  and  O15_15 
REMARK    4  A    between atoms: C24_23  and  O25_24 
ROOT
ATOM      1  C1  ZIN AC000       0.042   1.256   0.305  0.00  0.00     0.273 C 
ATOM      2  N2  ZIN AC000       0.061  -0.196   0.083  0.00  0.00    -0.063 N 
ATOM      3  C7  ZIN AC000      -1.307  -0.714   0.168  0.00  0.00     0.239 C 
ATOM      4  C8  ZIN AC000      -1.901  -0.407   1.548  0.00  0.00     0.048 C 
ATOM      5  C9  ZIN AC000      -1.000  -1.039   2.607  0.00  0.00     0.058 C 
ATOM      6  C10 ZIN AC000      -0.880  -2.521   2.349  0.00  0.00    -0.001 A 
ATOM      7  C11 ZIN AC000       0.030  -3.140   1.523  0.00  0.00    -0.046 A 
ATOM      8  C12 ZIN AC000      -0.070  -4.518   1.441  0.00  0.00     0.011 A 
ATOM      9  C13 ZIN AC000      -1.003  -5.197   2.207  0.00  0.00     0.040 A 
ATOM     10  C14 ZIN AC000      -1.865  -4.563   3.100  0.00  0.00     0.099 A 
ATOM     11  C16 ZIN AC000      -1.780  -3.168   3.184  0.00  0.00     0.110 A 
ATOM     12  O17 ZIN AC000      -2.407  -2.275   3.979  0.00  0.00    -0.334 OA
ATOM     13  C18 ZIN AC000      -1.643  -1.031   3.987  0.00  0.00     0.214 C 
ATOM     14  C20 ZIN AC000      -0.642  -1.132   5.099  0.00  0.00     0.157 C 
ATOM     15  O21 ZIN AC000      -1.003  -1.584   6.159  0.00  0.00    -0.295 OA
ATOM     16  C22 ZIN AC000       0.786  -0.698   4.957  0.00  0.00     0.084 C 
ATOM     17  C23 ZIN AC000       1.322  -1.106   3.583  0.00  0.00     0.048 C 
ATOM     18  C24 ZIN AC000       0.409  -0.481   2.487  0.00  0.00     0.102 C 
ATOM     19  C26 ZIN AC000       0.925  -0.825   1.088  0.00  0.00     0.229 C 
ATOM     20  C28 ZIN AC000       1.058  -2.315   0.820  0.00  0.00     0.076 C 
ENDROOT
BRANCH   2  21
ATOM     21  C3  ZIN AC000       0.599  -0.471  -1.256  0.00  0.00     0.242 C 
BRANCH  21  22
ATOM     22  C4  ZIN AC000       2.066  -0.043  -1.315  0.00  0.00     0.012 A 
ATOM     23  C6  ZIN AC000       2.803  -0.227  -2.643  0.00  0.00     0.007 A 
ATOM     24  C5  ZIN AC000       3.119  -1.144  -1.460  0.00  0.00     0.007 A 
ENDBRANCH  21  22
ENDBRANCH   2  21
BRANCH  18  25
ATOM     25  O25 ZIN AC000       0.375   0.939   2.646  0.00  0.00    -0.386 OA
ATOM     26  H50 ZIN AC000       1.241   1.364   2.571  0.00  0.00     0.210 HD
ENDBRANCH  18  25
BRANCH  10  27
ATOM     27  O15 ZIN AC000      -2.749  -5.267   3.856  0.00  0.00    -0.358 OA
ATOM     28  H45 ZIN AC000      -2.399  -5.546   4.713  0.00  0.00     0.217 HD
ENDBRANCH  10  27
TORSDOF 4
