REMARK  6 active torsions:
REMARK  status: ('A' for Active; 'I' for Inactive)
REMARK    1  A    between atoms: C2_2  and  C3_3 
REMARK    2  A    between atoms: C6_6  and  O7_7 
REMARK    3  A    between atoms: O7_7  and  C8_8 
REMARK       I    between atoms: C8_8  and  N10_10 
REMARK    4  A    between atoms: C13_13  and  N14_14 
REMARK    5  A    between atoms: C39_39  and  O40_40 
REMARK    6  A    between atoms: C39_39  and  C41_41 
ROOT
ATOM      1  C3  ZIN AC000      -1.412  -0.738   0.015  0.00  0.00    -0.035 A 
ATOM      2  C4  ZIN AC000      -2.100  -0.880   1.237  0.00  0.00     0.002 A 
ATOM      3  C5  ZIN AC000      -1.459  -0.656   2.464  0.00  0.00     0.051 A 
ATOM      4  C6  ZIN AC000      -2.159  -0.804   3.628  0.00  0.00     0.082 A 
ATOM      5  C23 ZIN AC000      -3.507  -1.176   3.611  0.00  0.00     0.040 A 
ATOM      6  C24 ZIN AC000      -4.156  -1.401   2.438  0.00  0.00     0.035 A 
ATOM      7  C25 ZIN AC000      -3.468  -1.258   1.217  0.00  0.00     0.068 A 
ATOM      8  N26 ZIN AC000      -4.086  -1.472   0.056  0.00  0.00    -0.245 NA
ATOM      9  C27 ZIN AC000      -3.451  -1.341  -1.099  0.00  0.00     0.093 A 
ATOM     10  C28 ZIN AC000      -2.098  -0.964  -1.137  0.00  0.00    -0.002 A 
ATOM     11  C29 ZIN AC000      -1.702  -0.911  -2.591  0.00  0.00     0.174 A 
ATOM     12  N30 ZIN AC000      -2.897  -1.275  -3.362  0.00  0.00    -0.307 N 
ATOM     13  C31 ZIN AC000      -3.921  -1.521  -2.492  0.00  0.00     0.068 A 
ATOM     14  C32 ZIN AC000      -5.160  -1.883  -2.976  0.00  0.00     0.043 A 
ATOM     15  C33 ZIN AC000      -5.370  -2.005  -4.356  0.00  0.00     0.002 A 
ATOM     16  C34 ZIN AC000      -4.341  -1.766  -5.213  0.00  0.00     0.044 A 
ATOM     17  C35 ZIN AC000      -4.486  -1.900  -6.705  0.00  0.00     0.224 C 
ATOM     18  O36 ZIN AC000      -5.887  -1.928  -7.084  0.00  0.00    -0.314 OA
ATOM     19  C37 ZIN AC000      -6.665  -2.726  -6.318  0.00  0.00     0.298 C 
ATOM     20  O38 ZIN AC000      -7.267  -3.663  -6.787  0.00  0.00    -0.261 OA
ATOM     21  C39 ZIN AC000      -6.743  -2.389  -4.847  0.00  0.00     0.173 C 
ATOM     22  C43 ZIN AC000      -3.089  -1.380  -4.691  0.00  0.00     0.257 A 
ATOM     23  O44 ZIN AC000      -2.166  -1.145  -5.454  0.00  0.00    -0.267 OA
ENDROOT
BRANCH   4  24
ATOM     24  O7  ZIN AC000      -1.537  -0.586   4.817  0.00  0.00    -0.261 OA
BRANCH  24  25
ATOM     25  C8  ZIN AC000      -1.307  -1.662   5.593  0.00  0.00     0.368 C 
ATOM     26  O9  ZIN AC000      -1.552  -2.776   5.175  0.00  0.00    -0.238 OA
ATOM     27  N10 ZIN AC000      -0.805  -1.503   6.834  0.00  0.00    -0.328 N 
ATOM     28  C22 ZIN AC000      -0.548  -2.668   7.692  0.00  0.00     0.130 C 
ATOM     29  C11 ZIN AC000      -0.510  -0.162   7.356  0.00  0.00     0.130 C 
ATOM     30  C21 ZIN AC000      -1.256  -2.466   9.030  0.00  0.00     0.053 C 
ATOM     31  C13 ZIN AC000      -0.824  -1.130   9.637  0.00  0.00     0.191 C 
ATOM     32  C12 ZIN AC000      -1.224   0.012   8.700  0.00  0.00     0.053 C 
BRANCH  31  33
ATOM     33  N14 ZIN AC000      -1.481  -0.948  10.939  0.00  0.00    -0.067 N 
ATOM     34  H15 ZIN AC000      -2.482  -0.951  10.812  0.00  0.00     0.280 HD
ATOM     35  C20 ZIN AC000      -1.099  -2.046  11.835  0.00  0.00     0.235 C 
ATOM     36  C19 ZIN AC000      -1.845  -1.906  13.164  0.00  0.00     0.028 C 
ATOM     37  C18 ZIN AC000      -1.478  -0.568  13.810  0.00  0.00     0.003 C 
ATOM     38  C17 ZIN AC000      -1.810   0.567  12.836  0.00  0.00     0.028 C 
ATOM     39  C16 ZIN AC000      -1.067   0.335  11.519  0.00  0.00     0.235 C 
ENDBRANCH  31  33
ENDBRANCH  24  25
ENDBRANCH   4  24
BRANCH   1  40
ATOM     40  C2  ZIN AC000       0.041  -0.340  -0.014  0.00  0.00     0.036 C 
ATOM     41  C1  ZIN AC000       0.151   1.185  -0.070  0.00  0.00     0.010 C 
ENDBRANCH   1  40
BRANCH  21  42
ATOM     42  O40 ZIN AC000      -7.210  -3.527  -4.120  0.00  0.00    -0.375 OA
ATOM     43  H77 ZIN AC000      -8.087  -3.834  -4.389  0.00  0.00     0.211 HD
ENDBRANCH  21  42
BRANCH  21  44
ATOM     44  C41 ZIN AC000      -7.706  -1.218  -4.641  0.00  0.00     0.049 C 
ATOM     45  C42 ZIN AC000      -9.097  -1.606  -5.149  0.00  0.00     0.009 C 
ENDBRANCH  21  44
TORSDOF 6
