REMARK  7 active torsions:
REMARK  status: ('A' for Active; 'I' for Inactive)
REMARK    1  A    between atoms: C8_8  and  O9_9 
REMARK    2  A    between atoms: O9_9  and  C10_10 
REMARK    3  A    between atoms: C10_10  and  C11_11 
REMARK    4  A    between atoms: C11_11  and  C12_12 
REMARK    5  A    between atoms: C12_12  and  C13_13 
REMARK    6  A    between atoms: C13_13  and  N14_14 
REMARK    7  A    between atoms: N17_17  and  C18_18 
ROOT
ATOM      1  C12 ZIN AC000       4.812   9.558  -0.013  0.00  0.00     0.032 C 
ENDROOT
BRANCH   1   2
ATOM      2  C11 ZIN AC000       4.890   8.030  -0.023  0.00  0.00     0.028 C 
BRANCH   2   3
ATOM      3  C10 ZIN AC000       3.476   7.447  -0.006  0.00  0.00     0.175 C 
BRANCH   3   4
ATOM      4  O9  ZIN AC000       3.549   6.020  -0.015  0.00  0.00    -0.351 OA
BRANCH   4   5
ATOM      5  C8  ZIN AC000       2.373   5.342  -0.003  0.00  0.00     0.070 A 
ATOM      6  C7  ZIN AC000       1.170   6.046   0.018  0.00  0.00     0.038 A 
ATOM      7  C6  ZIN AC000      -0.022   5.382   0.032  0.00  0.00     0.016 A 
ATOM      8  C5  ZIN AC000      -0.038   3.982   0.024  0.00  0.00    -0.009 A 
ATOM      9  C4  ZIN AC000      -1.299   3.241   0.038  0.00  0.00     0.019 A 
ATOM     10  C30 ZIN AC000       1.175   3.265   0.003  0.00  0.00     0.048 A 
ATOM     11  C3  ZIN AC000      -1.255   1.885   0.030  0.00  0.00     0.075 A 
ATOM     12  C2  ZIN AC000      -0.015   1.215   0.009  0.00  0.00     0.245 A 
ATOM     13  O1  ZIN AC000       0.002  -0.004   0.002  0.00  0.00    -0.268 OA
ATOM     14  N31 ZIN AC000       1.151   1.886   0.001  0.00  0.00    -0.323 N 
ATOM     15  H58 ZIN AC000       1.986   1.393  -0.009  0.00  0.00     0.169 HD
ATOM     16  C29 ZIN AC000       2.378   3.958  -0.010  0.00  0.00     0.067 A 
ENDBRANCH   4   5
ENDBRANCH   3   4
ENDBRANCH   2   3
ENDBRANCH   1   2
BRANCH   1  17
ATOM     17  C13 ZIN AC000       6.226  10.141  -0.030  0.00  0.00     0.272 C 
BRANCH  17  18
ATOM     18  N14 ZIN AC000       6.151  11.608  -0.020  0.00  0.00     0.090 N 
ATOM     19  C28 ZIN AC000       7.470  12.205  -0.274  0.00  0.00     0.287 C 
ATOM     20  C27 ZIN AC000       7.364  13.729  -0.177  0.00  0.00     0.126 C 
ATOM     21  N17 ZIN AC000       6.375  14.212  -1.151  0.00  0.00    -0.279 NA
ATOM     22  C16 ZIN AC000       5.056  13.615  -0.897  0.00  0.00     0.126 C 
ATOM     23  C15 ZIN AC000       5.162  12.091  -0.994  0.00  0.00     0.287 C 
BRANCH  21  24
ATOM     24  C18 ZIN AC000       6.304  15.605  -1.142  0.00  0.00     0.022 A 
ATOM     25  C26 ZIN AC000       5.876  16.264  -0.009  0.00  0.00     0.024 A 
ATOM     26  C25 ZIN AC000       5.808  17.650   0.012  0.00  0.00     0.003 A 
ATOM     27  C24 ZIN AC000       6.154  18.378  -1.101  0.00  0.00     0.020 A 
ATOM     28  C23 ZIN AC000       6.586  17.732  -2.266  0.00  0.00     0.016 A 
ATOM     29  C19 ZIN AC000       6.665  16.339  -2.299  0.00  0.00     0.003 A 
ATOM     30  S22 ZIN AC000       7.086  18.391  -3.818  0.00  0.00    -0.101 SA
ATOM     31  C20 ZIN AC000       7.131  15.854  -3.588  0.00  0.00     0.021 A 
ATOM     32  C21 ZIN AC000       7.389  16.794  -4.474  0.00  0.00     0.051 A 
ENDBRANCH  21  24
ENDBRANCH  17  18
ENDBRANCH   1  17
TORSDOF 7
