REMARK  11 active torsions:
REMARK  status: ('A' for Active; 'I' for Inactive)
REMARK    1  A    between atoms: C2_2  and  C3_3 
REMARK    2  A    between atoms: C3_3  and  N6_5 
REMARK    3  A    between atoms: N9_8  and  C10_9 
REMARK    4  A    between atoms: C13_12  and  N14_13 
REMARK    5  A    between atoms: N17_16  and  C18_17 
REMARK    6  A    between atoms: C21_20  and  O22_21 
REMARK    7  A    between atoms: O22_21  and  C23_22 
REMARK    8  A    between atoms: C23_22  and  C24_23 
REMARK    9  A    between atoms: C28_26  and  C29_27 
REMARK   10  A    between atoms: C28_26  and  C35_33 
REMARK   11  A    between atoms: C29_27  and  N30_28 
ROOT
ATOM      1  C18 ZIN AC000      11.464   6.390  -5.804  0.00  0.00     0.010 A 
ATOM      2  C19 ZIN AC000      11.219   7.046  -7.003  0.00  0.00     0.026 A 
ATOM      3  C20 ZIN AC000      12.272   7.540  -7.747  0.00  0.00     0.038 A 
ATOM      4  C21 ZIN AC000      13.575   7.381  -7.297  0.00  0.00     0.069 A 
ATOM      5  C44 ZIN AC000      13.821   6.727  -6.099  0.00  0.00     0.038 A 
ATOM      6  C45 ZIN AC000      12.768   6.237  -5.351  0.00  0.00     0.026 A 
ENDROOT
BRANCH   1   7
ATOM      7  N17 ZIN AC000      10.398   5.889  -5.049  0.00  0.00    -0.281 NA
ATOM      8  C16 ZIN AC000       9.113   6.160  -5.708  0.00  0.00     0.110 C 
ATOM      9  C15 ZIN AC000       7.981   5.529  -4.893  0.00  0.00     0.110 C 
ATOM     10  N14 ZIN AC000       7.997   6.079  -3.531  0.00  0.00    -0.281 NA
ATOM     11  C47 ZIN AC000       9.282   5.809  -2.871  0.00  0.00     0.110 C 
ATOM     12  C46 ZIN AC000      10.413   6.440  -3.686  0.00  0.00     0.110 C 
BRANCH  10  13
ATOM     13  C13 ZIN AC000       6.931   5.579  -2.776  0.00  0.00     0.010 A 
ATOM     14  C12 ZIN AC000       5.627   5.732  -3.229  0.00  0.00     0.026 A 
ATOM     15  C11 ZIN AC000       4.575   5.239  -2.484  0.00  0.00     0.032 A 
ATOM     16  C10 ZIN AC000       4.820   4.589  -1.282  0.00  0.00     0.045 A 
ATOM     17  C49 ZIN AC000       6.123   4.439  -0.826  0.00  0.00     0.032 A 
ATOM     18  C48 ZIN AC000       7.176   4.928  -1.574  0.00  0.00     0.026 A 
BRANCH  16  19
ATOM     19  N9  ZIN AC000       3.750   4.087  -0.524  0.00  0.00    -0.256 N 
ATOM     20  C8  ZIN AC000       3.854   3.431   0.680  0.00  0.00     0.242 A 
ATOM     21  N7  ZIN AC000       2.667   3.114   1.086  0.00  0.00    -0.163 NA
ATOM     22  N6  ZIN AC000       1.744   3.568   0.134  0.00  0.00    -0.214 N 
ATOM     23  C50 ZIN AC000       2.446   4.161  -0.855  0.00  0.00     0.351 A 
ATOM     24  O51 ZIN AC000       1.984   4.676  -1.858  0.00  0.00    -0.244 OA
BRANCH  22  25
ATOM     25  C3  ZIN AC000       0.288   3.420   0.197  0.00  0.00     0.111 C 
ATOM     26  C5  ZIN AC000      -0.071   1.934   0.255  0.00  0.00     0.034 C 
BRANCH  25  27
ATOM     27  C2  ZIN AC000      -0.242   4.123   1.448  0.00  0.00     0.022 C 
ATOM     28  C1  ZIN AC000       0.007   5.628   1.331  0.00  0.00     0.007 C 
ENDBRANCH  25  27
ENDBRANCH  22  25
ENDBRANCH  16  19
ENDBRANCH  10  13
ENDBRANCH   1   7
BRANCH   4  29
ATOM     29  O22 ZIN AC000      14.611   7.868  -8.031  0.00  0.00    -0.349 OA
BRANCH  29  30
ATOM     30  C23 ZIN AC000      15.926   7.669  -7.508  0.00  0.00     0.209 C 
BRANCH  30  31
ATOM     31  C24 ZIN AC000      16.953   8.280  -8.464  0.00  0.00     0.173 C 
ATOM     32  O43 ZIN AC000      17.013   7.530  -9.694  0.00  0.00    -0.340 OA
ATOM     33  C28 ZIN AC000      18.397   7.443 -10.070  0.00  0.00     0.213 C 
ATOM     34  O27 ZIN AC000      19.186   8.149  -9.098  0.00  0.00    -0.347 OA
ATOM     35  C26 ZIN AC000      18.386   8.138  -7.892  0.00  0.00     0.206 C 
BRANCH  33  36
ATOM     36  C29 ZIN AC000      18.829   5.976 -10.117  0.00  0.00     0.226 C 
BRANCH  36  37
ATOM     37  N30 ZIN AC000      17.975   5.246 -11.057  0.00  0.00    -0.257 N 
ATOM     38  N34 ZIN AC000      16.572   5.185 -11.048  0.00  0.00    -0.165 NA
ATOM     39  C33 ZIN AC000      16.220   4.431 -12.056  0.00  0.00     0.256 A 
ATOM     40  N32 ZIN AC000      17.316   4.012 -12.687  0.00  0.00    -0.234 NA
ATOM     41  C31 ZIN AC000      18.380   4.495 -12.096  0.00  0.00     0.230 A 
ENDBRANCH  36  37
ENDBRANCH  33  36
BRANCH  33  42
ATOM     42  C35 ZIN AC000      18.586   8.070 -11.428  0.00  0.00     0.027 A 
ATOM     43  C41 ZIN AC000      18.153   9.364 -11.658  0.00  0.00     0.047 A 
ATOM     44  C40 ZIN AC000      18.332   9.942 -12.902  0.00  0.00     0.048 A 
ATOM     45 Cl42 ZIN AC000      17.398  10.268 -10.382  0.00  0.00    -0.084 Cl
ATOM     46  C38 ZIN AC000      18.933   9.221 -13.919  0.00  0.00     0.035 A 
ATOM     47  C37 ZIN AC000      19.360   7.925 -13.689  0.00  0.00     0.024 A 
ATOM     48 Cl39 ZIN AC000      19.152   9.942 -15.483  0.00  0.00    -0.084 Cl
ATOM     49  C36 ZIN AC000      19.186   7.351 -12.443  0.00  0.00     0.016 A 
ENDBRANCH  33  42
ENDBRANCH  30  31
ENDBRANCH  29  30
ENDBRANCH   4  29
TORSDOF 11
