REMARK  5 active torsions:
REMARK  status: ('A' for Active; 'I' for Inactive)
REMARK       I    between atoms: N2_2  and  C3_3 
REMARK    1  A    between atoms: C3_3  and  C5_5 
REMARK    2  A    between atoms: C10_10  and  S11_11 
REMARK    3  A    between atoms: S11_11  and  C12_12 
REMARK    4  A    between atoms: C16_16  and  C17_17 
REMARK    5  A    between atoms: C18_18  and  C19_19 
ROOT
ATOM      1  C12 <0> d           2.675  -3.168   4.484  0.00  0.00     0.007 A 
ATOM      2  C13 <0> d           2.611  -4.527   4.170  0.00  0.00     0.020 A 
ATOM      3  C14 <0> d           3.121  -5.459   5.026  0.00  0.00     0.017 A 
ATOM      4  C15 <0> d           3.712  -5.055   6.225  0.00  0.00     0.022 A 
ATOM      5  C16 <0> d           4.340  -5.775   7.341  0.00  0.00     0.089 A 
ATOM      6  N25 <0> d           4.730  -4.878   8.220  0.00  0.00    -0.174 NA
ATOM      7  N26 <0> d           4.405  -3.596   7.768  0.00  0.00    -0.277 N 
ATOM      8  C27 <0> d           3.781  -3.688   6.549  0.00  0.00     0.064 A 
ATOM      9  C28 <0> d           3.263  -2.747   5.664  0.00  0.00     0.051 A 
ATOM     10  H45 <0> d           4.590  -2.770   8.242  0.00  0.00     0.189 HD
ENDROOT
BRANCH   1  11
ATOM     11  S11 <0> d           2.011  -1.980   3.365  0.00  0.00    -0.089 SA
BRANCH  11  12
ATOM     12  C10 <0> d           0.387  -1.709   3.993  0.00  0.00     0.021 A 
ATOM     13  C5  <0> d          -0.429  -0.713   3.432  0.00  0.00     0.049 A 
ATOM     14  C6  <0> d          -1.715  -0.509   3.939  0.00  0.00     0.018 A 
ATOM     15  C7  <0> d          -2.171  -1.279   4.987  0.00  0.00     0.001 A 
ATOM     16  C8  <0> d          -1.360  -2.257   5.543  0.00  0.00     0.001 A 
ATOM     17  C9  <0> d          -0.088  -2.471   5.053  0.00  0.00     0.020 A 
BRANCH  13  18
ATOM     18  C3  <0> d           0.064   0.107   2.311  0.00  0.00     0.252 C 
ATOM     19  N2  <0> d          -0.723   1.061   1.776  0.00  0.00    -0.361 N 
ATOM     20  C1  <0> d          -0.233   1.877   0.662  0.00  0.00     0.149 C 
ATOM     21  H32 <0> d          -1.615   1.208   2.129  0.00  0.00     0.162 HD
ATOM     22  O4  <0> d           1.182  -0.077   1.869  0.00  0.00    -0.268 OA
ENDBRANCH  13  18
ENDBRANCH  11  12
ENDBRANCH   1  11
BRANCH   5  23
ATOM     23  C17 <0> d           4.503  -7.232   7.455  0.00  0.00     0.036 C 
ATOM     24  C18 <0> d           5.101  -7.760   8.538  0.00  0.00     0.034 C 
BRANCH  24  25
ATOM     25  C19 <0> d           5.264  -9.219   8.652  0.00  0.00     0.056 A 
ATOM     26  N24 <0> d           4.818 -10.011   7.680  0.00  0.00    -0.261 NA
ATOM     27  C23 <0> d           4.951 -11.320   7.743  0.00  0.00     0.117 A 
ATOM     28  C22 <0> d           5.551 -11.922   8.833  0.00  0.00     0.019 A 
ATOM     29  C21 <0> d           6.026 -11.134   9.873  0.00  0.00     0.004 A 
ATOM     30  C20 <0> d           5.880  -9.762   9.782  0.00  0.00     0.031 A 
ENDBRANCH  24  25
ENDBRANCH   5  23
TORSDOF 5
