REMARK  6 active torsions:
REMARK  status: ('A' for Active; 'I' for Inactive)
REMARK    1  A    between atoms: O2_2  and  C3_3 
REMARK    2  A    between atoms: C6_6  and  C7_7 
REMARK    3  A    between atoms: C7_7  and  C9_9 
REMARK    4  A    between atoms: C10_10  and  O11_11 
REMARK    5  A    between atoms: C10_10  and  C12_12 
REMARK    6  A    between atoms: C15_15  and  C16_16 
ROOT
ATOM      1  C9  ZIN AC000       2.543  -3.900  -4.436  0.00  0.00     0.092 C 
ATOM      2  C10 ZIN AC000       3.148  -4.504  -5.495  0.00  0.00     0.079 C 
ENDROOT
BRANCH   2   3
ATOM      3  O11 ZIN AC000       3.701  -3.755  -6.476  0.00  0.00    -0.360 OA
ATOM      4  H30 ZIN AC000       4.107  -4.272  -7.185  0.00  0.00     0.217 HD
ENDBRANCH   2   3
BRANCH   2   5
ATOM      5  C12 ZIN AC000       3.201  -5.976  -5.574  0.00  0.00    -0.003 A 
ATOM      6  C21 ZIN AC000       3.821  -6.600  -6.660  0.00  0.00     0.015 A 
ATOM      7  C20 ZIN AC000       3.871  -7.976  -6.724  0.00  0.00     0.009 A 
ATOM      8  C15 ZIN AC000       3.300  -8.740  -5.721  0.00  0.00    -0.051 A 
ATOM      9  C14 ZIN AC000       2.679  -8.130  -4.646  0.00  0.00     0.009 A 
ATOM     10  C13 ZIN AC000       2.626  -6.754  -4.565  0.00  0.00     0.015 A 
BRANCH   8  11
ATOM     11  C16 ZIN AC000       3.353 -10.244  -5.801  0.00  0.00    -0.024 C 
ATOM     12  C17 ZIN AC000       1.930 -10.805  -5.826  0.00  0.00     0.019 C 
ATOM     13  C18 ZIN AC000       4.088 -10.661  -7.077  0.00  0.00     0.019 C 
ATOM     14  C19 ZIN AC000       4.096 -10.793  -4.582  0.00  0.00     0.019 C 
ENDBRANCH   8  11
ENDBRANCH   2   5
BRANCH   1  15
ATOM     15  C7  ZIN AC000       2.493  -2.492  -4.361  0.00  0.00     0.184 C 
ATOM     16  O8  ZIN AC000       2.991  -1.816  -5.245  0.00  0.00    -0.287 OA
BRANCH  15  17
ATOM     17  C6  ZIN AC000       1.836  -1.836  -3.211  0.00  0.00     0.014 A 
ATOM     18  C5  ZIN AC000       1.785  -0.442  -3.135  0.00  0.00     0.018 A 
ATOM     19  C4  ZIN AC000       1.172   0.166  -2.061  0.00  0.00     0.037 A 
ATOM     20  C3  ZIN AC000       0.605  -0.606  -1.054  0.00  0.00     0.068 A 
ATOM     21  C23 ZIN AC000       0.659  -1.994  -1.124  0.00  0.00     0.037 A 
ATOM     22  C22 ZIN AC000       1.265  -2.608  -2.197  0.00  0.00     0.018 A 
BRANCH  20  23
ATOM     23  O2  ZIN AC000       0.002  -0.004   0.002  0.00  0.00    -0.356 OA
ATOM     24  C1  ZIN AC000      -0.017   1.425   0.010  0.00  0.00     0.210 C 
ENDBRANCH  20  23
ENDBRANCH  15  17
ENDBRANCH   1  15
TORSDOF 6
