REMARK  16 active torsions:
REMARK  status: ('A' for Active; 'I' for Inactive)
REMARK    1  A    between atoms: C2_2  and  C3_3 
REMARK    2  A    between atoms: C3_3  and  C4_4 
REMARK    3  A    between atoms: C4_4  and  C5_5 
REMARK    4  A    between atoms: C5_5  and  O7_7 
REMARK    5  A    between atoms: C5_5  and  C8_8 
REMARK    6  A    between atoms: C8_8  and  C9_9 
REMARK    7  A    between atoms: C10_10  and  C11_11 
REMARK    8  A    between atoms: C13_12  and  O15_13 
REMARK    9  A    between atoms: C19_17  and  C21_18 
REMARK   10  A    between atoms: C21_18  and  C22_19 
REMARK   11  A    between atoms: C22_19  and  C23_20 
REMARK   12  A    between atoms: C23_20  and  C24_21 
REMARK   13  A    between atoms: C24_21  and  C25_22 
REMARK   14  A    between atoms: C25_22  and  C26_23 
REMARK   15  A    between atoms: C26_23  and  C27_24 
REMARK   16  A    between atoms: C27_24  and  O29_26 
ROOT
ATOM      1  C11 ZIN AC000       2.108  -5.924   5.780  0.00  0.00     0.048 C 
ATOM      2  C13 ZIN AC000       1.184  -5.623   6.987  0.00  0.00     0.133 C 
ATOM      3  C16 ZIN AC000       1.618  -6.699   8.013  0.00  0.00     0.111 C 
ATOM      4  C17 ZIN AC000       1.890  -7.934   7.173  0.00  0.00     0.134 C 
ATOM      5  O18 ZIN AC000       1.860  -9.080   7.555  0.00  0.00    -0.297 OA
ATOM      6  C19 ZIN AC000       2.209  -7.464   5.767  0.00  0.00     0.065 C 
ENDROOT
BRANCH   1   7
ATOM      7  C10 ZIN AC000       1.489  -5.423   4.501  0.00  0.00    -0.023 C 
ATOM      8  C9  ZIN AC000       2.143  -4.578   3.743  0.00  0.00    -0.027 C 
BRANCH   8   9
ATOM      9  C8  ZIN AC000       1.524  -4.077   2.464  0.00  0.00     0.064 C 
BRANCH   9  10
ATOM     10  C5  ZIN AC000       1.503  -2.548   2.473  0.00  0.00     0.057 C 
ATOM     11  C6  ZIN AC000       0.787  -2.054   3.732  0.00  0.00     0.046 C 
BRANCH  10  12
ATOM     12  C4  ZIN AC000       0.763  -2.041   1.233  0.00  0.00     0.038 C 
BRANCH  12  13
ATOM     13  C3  ZIN AC000       0.742  -0.511   1.242  0.00  0.00     0.002 C 
BRANCH  13  14
ATOM     14  C2  ZIN AC000       0.002  -0.004   0.002  0.00  0.00    -0.004 C 
ATOM     15  C1  ZIN AC000      -0.019   1.526   0.010  0.00  0.00     0.005 C 
ENDBRANCH  13  14
ENDBRANCH  12  13
ENDBRANCH  10  12
BRANCH  10  16
ATOM     16  O7  ZIN AC000       2.843  -2.053   2.462  0.00  0.00    -0.390 OA
ATOM     17  H43 ZIN AC000       3.358  -2.327   1.691  0.00  0.00     0.210 HD
ENDBRANCH  10  16
ENDBRANCH   9  10
ENDBRANCH   8   9
ENDBRANCH   1   7
BRANCH   6  18
ATOM     18  C21 ZIN AC000       3.624  -7.898   5.378  0.00  0.00     0.013 C 
BRANCH  18  19
ATOM     19  C22 ZIN AC000       3.679  -9.424   5.277  0.00  0.00     0.001 C 
BRANCH  19  20
ATOM     20  C23 ZIN AC000       5.093  -9.858   4.888  0.00  0.00     0.000 C 
BRANCH  20  21
ATOM     21  C24 ZIN AC000       5.149 -11.384   4.786  0.00  0.00     0.000 C 
BRANCH  21  22
ATOM     22  C25 ZIN AC000       6.563 -11.818   4.397  0.00  0.00     0.010 C 
BRANCH  22  23
ATOM     23  C26 ZIN AC000       6.618 -13.344   4.296  0.00  0.00     0.111 C 
BRANCH  23  24
ATOM     24  C27 ZIN AC000       8.012 -13.772   3.913  0.00  0.00     0.258 C 
ATOM     25  O28 ZIN AC000       8.872 -12.942   3.740  0.00  0.00    -0.265 OA
BRANCH  24  26
ATOM     26  O29 ZIN AC000       8.297 -15.075   3.765  0.00  0.00    -0.326 OA
ATOM     27  C30 ZIN AC000       9.659 -15.414   3.395  0.00  0.00     0.213 C 
ENDBRANCH  24  26
ENDBRANCH  23  24
ENDBRANCH  22  23
ENDBRANCH  21  22
ENDBRANCH  20  21
ENDBRANCH  19  20
ENDBRANCH  18  19
ENDBRANCH   6  18
BRANCH   2  28
ATOM     28  O15 ZIN AC000       1.422  -4.308   7.493  0.00  0.00    -0.394 OA
ATOM     29  H48 ZIN AC000       0.868  -4.071   8.250  0.00  0.00     0.210 HD
ENDBRANCH   2  28
TORSDOF 16
