REMARK  13 active torsions:
REMARK  status: ('A' for Active; 'I' for Inactive)
REMARK    1  A    between atoms: N2_2  and  C5_5 
REMARK    2  A    between atoms: C5_5  and  C8_7 
REMARK    3  A    between atoms: C12_10  and  N14_11 
REMARK    4  A    between atoms: C18_15  and  O20_16 
REMARK    5  A    between atoms: O20_16  and  C21_17 
REMARK    6  A    between atoms: C23_18  and  N25_19 
REMARK    7  A    between atoms: C30_24  and  N32_25 
REMARK    8  A    between atoms: C36_29  and  O38_30 
REMARK    9  A    between atoms: O38_30  and  C39_31 
REMARK   10  A    between atoms: C43_34  and  O45_36 
REMARK   11  A    between atoms: C46_37  and  N48_38 
REMARK   12  A    between atoms: C52_42  and  O54_43 
REMARK   13  A    between atoms: C55_44  and  O57_45 
ROOT
ATOM      1  C21 ZIN AC000      -3.691  -5.352  -0.357  0.00  0.00     0.186 C 
ATOM      2  C23 ZIN AC000      -5.047  -5.969  -0.706  0.00  0.00     0.217 C 
ATOM      3  C29 ZIN AC000      -5.530  -5.414  -2.047  0.00  0.00     0.071 C 
ATOM      4  C30 ZIN AC000      -5.671  -3.893  -1.949  0.00  0.00     0.217 C 
ATOM      5  C36 ZIN AC000      -4.315  -3.276  -1.600  0.00  0.00     0.186 C 
ATOM      6  C55 ZIN AC000      -3.832  -3.832  -0.259  0.00  0.00     0.180 C 
ENDROOT
BRANCH   1   7
ATOM      7  O20 ZIN AC000      -2.743  -5.677  -1.376  0.00  0.00    -0.349 OA
BRANCH   7   8
ATOM      8  C18 ZIN AC000      -1.522  -6.229  -0.880  0.00  0.00     0.291 C 
ATOM      9  C12 ZIN AC000      -0.706  -6.795  -2.046  0.00  0.00     0.238 C 
ATOM     10  C11 ZIN AC000       0.626  -7.330  -1.513  0.00  0.00     0.040 C 
ATOM     11  C10 ZIN AC000       1.362  -6.203  -0.782  0.00  0.00     0.036 C 
ATOM     12  C8  ZIN AC000       0.466  -5.660   0.334  0.00  0.00     0.155 C 
ATOM     13  O58 ZIN AC000      -0.768  -5.207  -0.224  0.00  0.00    -0.352 OA
BRANCH   9  14
ATOM     14  N14 ZIN AC000      -0.452  -5.734  -3.029  0.00  0.00    -0.070 N 
ATOM     15  H15 ZIN AC000       0.035  -6.121  -3.823  0.00  0.00     0.274 HD
ATOM     16  H16 ZIN AC000      -1.329  -5.338  -3.331  0.00  0.00     0.274 HD
ATOM     17  H17 ZIN AC000       0.115  -5.013  -2.607  0.00  0.00     0.274 HD
ENDBRANCH   9  14
BRANCH  12  18
ATOM     18  C5  ZIN AC000       1.170  -4.493   1.031  0.00  0.00     0.210 C 
ATOM     19  C7  ZIN AC000       1.343  -3.339   0.042  0.00  0.00     0.042 C 
BRANCH  18  20
ATOM     20  N2  ZIN AC000       0.360  -4.044   2.171  0.00  0.00    -0.073 N 
ATOM     21  C1  ZIN AC000       1.090  -3.006   2.911  0.00  0.00     0.267 C 
ATOM     22  H3  ZIN AC000       0.177  -4.826   2.783  0.00  0.00     0.277 HD
ATOM     23  H4  ZIN AC000      -0.514  -3.667   1.836  0.00  0.00     0.277 HD
ENDBRANCH  18  20
ENDBRANCH  12  18
ENDBRANCH   7   8
ENDBRANCH   1   7
BRANCH   6  24
ATOM     24  O57 ZIN AC000      -4.780  -3.507   0.760  0.00  0.00    -0.390 OA
ATOM     25  H81 ZIN AC000      -4.920  -2.557   0.878  0.00  0.00     0.210 HD
ENDBRANCH   6  24
BRANCH   2  26
ATOM     26  N25 ZIN AC000      -4.911  -7.429  -0.801  0.00  0.00    -0.072 N 
ATOM     27  H26 ZIN AC000      -4.511  -7.785   0.054  0.00  0.00     0.274 HD
ATOM     28  H27 ZIN AC000      -5.820  -7.842  -0.945  0.00  0.00     0.274 HD
ATOM     29  H28 ZIN AC000      -4.309  -7.661  -1.576  0.00  0.00     0.274 HD
ENDBRANCH   2  26
BRANCH   5  30
ATOM     30  O38 ZIN AC000      -3.368  -3.602  -2.619  0.00  0.00    -0.349 OA
BRANCH  30  31
ATOM     31  C39 ZIN AC000      -2.651  -2.475  -3.128  0.00  0.00     0.291 C 
ATOM     32  C52 ZIN AC000      -1.592  -2.951  -4.125  0.00  0.00     0.207 C 
ATOM     33  C46 ZIN AC000      -0.870  -1.733  -4.711  0.00  0.00     0.254 C 
ATOM     34  C43 ZIN AC000      -1.901  -0.803  -5.357  0.00  0.00     0.106 C 
ATOM     35  C42 ZIN AC000      -2.948  -0.410  -4.312  0.00  0.00     0.210 C 
ATOM     36  C44 ZIN AC000      -1.200   0.454  -5.877  0.00  0.00     0.050 C 
ATOM     37  O41 ZIN AC000      -3.560  -1.589  -3.785  0.00  0.00    -0.356 OA
BRANCH  32  38
ATOM     38  O54 ZIN AC000      -2.221  -3.684  -5.178  0.00  0.00    -0.388 OA
ATOM     39  H80 ZIN AC000      -2.699  -4.470  -4.878  0.00  0.00     0.210 HD
ENDBRANCH  32  38
BRANCH  33  40
ATOM     40  N48 ZIN AC000       0.098  -2.175  -5.724  0.00  0.00    -0.069 N 
ATOM     41  H49 ZIN AC000      -0.373  -2.740  -6.415  0.00  0.00     0.277 HD
ATOM     42  H50 ZIN AC000       0.507  -1.368  -6.172  0.00  0.00     0.277 HD
ATOM     43  C51 ZIN AC000       1.154  -2.967  -5.081  0.00  0.00     0.267 C 
ENDBRANCH  33  40
BRANCH  34  44
ATOM     44  O45 ZIN AC000      -2.540  -1.478  -6.443  0.00  0.00    -0.386 OA
ATOM     45  H76 ZIN AC000      -3.209  -0.947  -6.896  0.00  0.00     0.210 HD
ENDBRANCH  34  44
ENDBRANCH  30  31
ENDBRANCH   5  30
BRANCH   4  46
ATOM     46  N32 ZIN AC000      -6.135  -3.360  -3.237  0.00  0.00    -0.072 N 
ATOM     47  H33 ZIN AC000      -7.029  -3.767  -3.467  0.00  0.00     0.274 HD
ATOM     48  H34 ZIN AC000      -6.228  -2.358  -3.172  0.00  0.00     0.274 HD
ATOM     49  H35 ZIN AC000      -5.466  -3.590  -3.956  0.00  0.00     0.274 HD
ENDBRANCH   4  46
TORSDOF 13
