REMARK  6 active torsions:
REMARK  status: ('A' for Active; 'I' for Inactive)
REMARK    1  A    between atoms: N1_1  and  C2_2 
REMARK    2  A    between atoms: N6_6  and  C7_7 
REMARK    3  A    between atoms: C10_9  and  C12_10 
REMARK    4  A    between atoms: C12_10  and  O13_11 
REMARK    5  A    between atoms: C14_12  and  O16_13 
REMARK    6  A    between atoms: C17_14  and  O19_15 
ROOT
ATOM      1  C7  <0> d           0.001  -4.173  -0.023  0.00  0.00     0.264 C 
ATOM      2  O9  <0> d          -0.855  -4.660  -1.078  0.00  0.00    -0.353 OA
ATOM      3  C10 <0> d          -1.233  -6.001  -0.726  0.00  0.00     0.179 C 
ATOM      4  C14 <0> d          -1.169  -6.107   0.810  0.00  0.00     0.182 C 
ATOM      5  C17 <0> d          -0.665  -4.715   1.268  0.00  0.00     0.198 C 
ENDROOT
BRANCH   1   6
ATOM      6  N6  <0> d           0.026  -2.708  -0.014  0.00  0.00    -0.278 N 
ATOM      7  C4  <0> d          -1.129  -2.018  -0.004  0.00  0.00     0.352 A 
ATOM      8  N3  <0> d          -1.135  -0.687   0.004  0.00  0.00    -0.177 NA
ATOM      9  O5  <0> d          -2.189  -2.623  -0.003  0.00  0.00    -0.244 OA
ATOM     10  C2  <0> d           0.002  -0.004   0.002  0.00  0.00     0.128 A 
ATOM     11  C21 <0> d           1.230  -0.697  -0.013  0.00  0.00     0.067 A 
ATOM     12  C20 <0> d           1.220  -2.050  -0.016  0.00  0.00     0.102 A 
BRANCH  10  13
ATOM     13  N1  <0> d          -0.017   1.371   0.010  0.00  0.00    -0.384 N 
ATOM     14  H22 <0> d           0.817   1.868   0.004  0.00  0.00     0.157 HD
ATOM     15  H23 <0> d          -0.863   1.845   0.016  0.00  0.00     0.157 HD
ENDBRANCH  10  13
ENDBRANCH   1   6
BRANCH   5  16
ATOM     16  O19 <0> d          -1.757  -3.882   1.663  0.00  0.00    -0.388 OA
ATOM     17  H28 <0> d          -2.264  -4.227   2.411  0.00  0.00     0.210 HD
ENDBRANCH   5  16
BRANCH   4  18
ATOM     18  O16 <0> d          -0.246  -7.126   1.203  0.00  0.00    -0.390 OA
ATOM     19  H27 <0> d          -0.482  -8.011   0.893  0.00  0.00     0.210 HD
ENDBRANCH   4  18
BRANCH   3  20
ATOM     20  C12 <0> d          -2.657  -6.285  -1.210  0.00  0.00     0.198 C 
BRANCH  20  21
ATOM     21  O13 <0> d          -2.683  -6.284  -2.639  0.00  0.00    -0.398 OA
ATOM     22  H26 <0> d          -3.556  -6.457  -3.017  0.00  0.00     0.209 HD
ENDBRANCH  20  21
ENDBRANCH   3  20
TORSDOF 6
