REMARK  5 active torsions:
REMARK  status: ('A' for Active; 'I' for Inactive)
REMARK    1  A    between atoms: C2_2  and  C3_3 
REMARK    2  A    between atoms: C3_3  and  C4_4 
REMARK    3  A    between atoms: C4_4  and  C5_5 
REMARK    4  A    between atoms: C5_5  and  C8_7 
REMARK    5  A    between atoms: C9_8  and  C10_9 
ROOT
ATOM      1  C4  ZIN AC000      -1.319  -1.741  -1.176  0.00  0.00     0.141 A 
ATOM      2  C12 ZIN AC000      -1.371  -0.920  -2.451  0.00  0.00     0.267 A 
ATOM      3  O13 ZIN AC000      -2.269  -0.133  -2.656  0.00  0.00    -0.270 OA
ATOM      4  N14 ZIN AC000      -0.379  -1.100  -3.350  0.00  0.00    -0.157 NA
ATOM      5  C15 ZIN AC000       0.620  -1.964  -3.139  0.00  0.00     0.353 A 
ATOM      6  O16 ZIN AC000       1.471  -2.062  -4.000  0.00  0.00    -0.244 OA
ATOM      7  N17 ZIN AC000       0.750  -2.729  -2.049  0.00  0.00    -0.272 N 
ATOM      8  C18 ZIN AC000       1.897  -3.635  -1.949  0.00  0.00     0.164 C 
ATOM      9  C19 ZIN AC000      -0.144  -2.691  -1.038  0.00  0.00     0.247 A 
ATOM     10  O20 ZIN AC000      -0.013  -3.390  -0.056  0.00  0.00    -0.271 OA
ENDROOT
BRANCH   1  11
ATOM     11  C3  ZIN AC000      -1.293  -0.775   0.010  0.00  0.00     0.057 C 
BRANCH  11  12
ATOM     12  C2  ZIN AC000       0.002  -0.004   0.002  0.00  0.00    -0.035 C 
ATOM     13  C1  ZIN AC000      -0.016   1.306   0.009  0.00  0.00     0.007 C 
ENDBRANCH  11  12
ENDBRANCH   1  11
BRANCH   1  14
ATOM     14  C5  ZIN AC000      -2.607  -2.561  -1.090  0.00  0.00     0.088 C 
ATOM     15  C7  ZIN AC000      -2.668  -3.540  -2.264  0.00  0.00     0.025 C 
BRANCH  14  16
ATOM     16  C8  ZIN AC000      -2.627  -3.311   0.176  0.00  0.00    -0.100 C 
ATOM     17  C9  ZIN AC000      -2.643  -3.910   1.186  0.00  0.00    -0.106 C 
BRANCH  17  18
ATOM     18  C10 ZIN AC000      -2.663  -4.660   2.452  0.00  0.00     0.089 C 
ATOM     19  C11 ZIN AC000      -3.952  -5.481   2.539  0.00  0.00     0.018 C 
ENDBRANCH  17  18
ENDBRANCH  14  16
ENDBRANCH   1  14
TORSDOF 5
