REMARK  3 active torsions:
REMARK  status: ('A' for Active; 'I' for Inactive)
REMARK    1  A    between atoms: C2_2  and  C3_3 
REMARK    2  A    between atoms: C3_3  and  C5_4 
REMARK    3  A    between atoms: C3_3  and  N8_7 
REMARK       I    between atoms: C5_4  and  N6_5 
ROOT
ATOM      1  C3  ZIN AC000       0.718  -0.497  -1.257  0.00  0.00     0.178 C 
ENDROOT
BRANCH   1   2
ATOM      2  C2  ZIN AC000       0.002  -0.004   0.002  0.00  0.00     0.030 C 
ATOM      3  C1  ZIN AC000      -0.019   1.526   0.010  0.00  0.00     0.007 C 
ENDBRANCH   1   2
BRANCH   1   4
ATOM      4  C5  ZIN AC000       0.632  -2.000  -1.327  0.00  0.00     0.238 C 
ATOM      5  N6  ZIN AC000      -0.572  -2.604  -1.380  0.00  0.00    -0.368 N 
ATOM      6  H19 ZIN AC000      -1.383  -2.072  -1.372  0.00  0.00     0.159 HD
ATOM      7  H20 ZIN AC000      -0.628  -3.572  -1.425  0.00  0.00     0.159 HD
ATOM      8  O7  ZIN AC000       1.645  -2.666  -1.337  0.00  0.00    -0.271 OA
ENDBRANCH   1   4
BRANCH   1   9
ATOM      9  N8  ZIN AC000       2.125  -0.091  -1.209  0.00  0.00    -0.339 N 
ATOM     10  C12 ZIN AC000       2.988  -0.457  -0.246  0.00  0.00     0.220 C 
ATOM     11  C11 ZIN AC000       4.349   0.148  -0.510  0.00  0.00     0.104 C 
ATOM     12  O13 ZIN AC000       2.717  -1.173   0.694  0.00  0.00    -0.273 OA
ATOM     13  C10 ZIN AC000       4.071   1.272  -1.534  0.00  0.00     0.029 C 
ATOM     14  C9  ZIN AC000       2.771   0.773  -2.204  0.00  0.00     0.127 C 
ENDBRANCH   1   9
TORSDOF 3
