REMARK  4 active torsions:
REMARK  status: ('A' for Active; 'I' for Inactive)
REMARK    1  A    between atoms: N6_6  and  C7_7 
REMARK    2  A    between atoms: C10_9  and  O12_10 
REMARK    3  A    between atoms: C13_11  and  C15_12 
REMARK    4  A    between atoms: C15_12  and  O16_13 
ROOT
ATOM      1  C7  ZIN AC000      -0.114   5.396   0.034  0.00  0.00     0.235 C 
ATOM      2  C9  ZIN AC000      -0.798   5.918  -1.248  0.00  0.00     0.088 C 
ATOM      3  C10 ZIN AC000      -1.617   7.136  -0.767  0.00  0.00     0.153 C 
ATOM      4  C13 ZIN AC000      -1.331   7.206   0.749  0.00  0.00     0.176 C 
ATOM      5  O17 ZIN AC000      -0.948   5.862   1.117  0.00  0.00    -0.356 OA
ENDROOT
BRANCH   1   6
ATOM      6  N6  ZIN AC000      -0.062   3.932   0.025  0.00  0.00    -0.278 N 
ATOM      7  C4  ZIN AC000      -1.206   3.224   0.037  0.00  0.00     0.353 A 
ATOM      8  N3  ZIN AC000      -1.188   1.878   0.029  0.00  0.00    -0.151 NA
ATOM      9  O5  ZIN AC000      -2.272   3.808   0.056  0.00  0.00    -0.244 OA
ATOM     10  C2  ZIN AC000      -0.014   1.214   0.009  0.00  0.00     0.311 A 
ATOM     11  O1  ZIN AC000       0.002  -0.004   0.002  0.00  0.00    -0.263 OA
ATOM     12  C19 ZIN AC000       1.199   1.946   0.001  0.00  0.00     0.201 A 
ATOM     13  C18 ZIN AC000       1.153   3.295   0.004  0.00  0.00     0.146 A 
ATOM     14  F20 ZIN AC000       2.387   1.302  -0.019  0.00  0.00    -0.199 F 
ENDBRANCH   1   6
BRANCH   4  15
ATOM     15  C15 ZIN AC000      -2.588   7.632   1.510  0.00  0.00     0.198 C 
BRANCH  15  16
ATOM     16  O16 ZIN AC000      -2.273   7.803   2.893  0.00  0.00    -0.398 OA
ATOM     17  H26 ZIN AC000      -3.025   8.074   3.437  0.00  0.00     0.209 HD
ENDBRANCH  15  16
ENDBRANCH   4  15
BRANCH   3  18
ATOM     18  O12 ZIN AC000      -1.173   8.328  -1.419  0.00  0.00    -0.393 OA
ATOM     19  H23 ZIN AC000      -1.275   8.312  -2.381  0.00  0.00     0.210 HD
ENDBRANCH   3  18
TORSDOF 4
