REMARK  7 active torsions:
REMARK  status: ('A' for Active; 'I' for Inactive)
REMARK    1  A    between atoms: C2_2  and  N3_3 
REMARK    2  A    between atoms: N6_6  and  C7_7 
REMARK    3  A    between atoms: C7_7  and  C8_8 
REMARK    4  A    between atoms: C11_11  and  N12_12 
REMARK    5  A    between atoms: N12_12  and  C13_13 
REMARK    6  A    between atoms: C18_18  and  C19_19 
REMARK    7  A    between atoms: N27_27  and  C28_28 
ROOT
ATOM      1  C13 ZIN AC000       4.369  -8.616   3.296  0.00  0.00     0.728 A 
ATOM      2  N14 ZIN AC000       3.157  -8.475   3.812  0.00  0.00    -0.072 NA
ATOM      3  C15 ZIN AC000       2.461  -9.527   4.214  0.00  0.00     0.181 A 
ATOM      4  C16 ZIN AC000       3.011 -10.792   4.090  0.00  0.00     0.164 A 
ATOM      5  F17 ZIN AC000       2.328 -11.887   4.490  0.00  0.00    -0.202 F 
ATOM      6  C18 ZIN AC000       4.294 -10.908   3.541  0.00  0.00     0.126 A 
ATOM      7  N33 ZIN AC000       4.931  -9.805   3.154  0.00  0.00    -0.059 NA
ENDROOT
BRANCH   1   8
ATOM      8  N12 ZIN AC000       5.064  -7.487   2.888  0.00  0.00    -0.171 N 
ATOM      9  H51 ZIN AC000       5.915  -7.580   2.431  0.00  0.00     0.186 HD
BRANCH   8  10
ATOM     10  C11 ZIN AC000       4.541  -6.221   3.134  0.00  0.00     0.142 A 
ATOM     11  C10 ZIN AC000       5.293  -5.093   2.826  0.00  0.00     0.051 A 
ATOM     12  C9  ZIN AC000       4.761  -3.840   3.075  0.00  0.00     0.014 A 
ATOM     13  C8  ZIN AC000       3.490  -3.758   3.627  0.00  0.00    -0.012 A 
ATOM     14  C35 ZIN AC000       2.801  -4.920   3.913  0.00  0.00     0.128 A 
ATOM     15  N34 ZIN AC000       3.331  -6.101   3.659  0.00  0.00    -0.242 NA
BRANCH  13  16
ATOM     16  C7  ZIN AC000       2.870  -2.415   3.916  0.00  0.00     0.312 C 
BRANCH  16  17
ATOM     17  N6  ZIN AC000       3.224  -1.996   5.278  0.00  0.00     0.096 N 
ATOM     18  C5  ZIN AC000       2.452  -0.813   5.682  0.00  0.00     0.303 C 
ATOM     19  C4  ZIN AC000       2.791  -0.456   7.132  0.00  0.00     0.302 C 
ATOM     20  N3  ZIN AC000       4.234  -0.204   7.247  0.00  0.00     0.091 N 
ATOM     21  C37 ZIN AC000       5.006  -1.387   6.843  0.00  0.00     0.302 C 
ATOM     22  C36 ZIN AC000       4.668  -1.744   5.394  0.00  0.00     0.303 C 
BRANCH  20  23
ATOM     23  C2  ZIN AC000       4.588   0.216   8.610  0.00  0.00     0.268 C 
ATOM     24  C1  ZIN AC000       3.600   1.282   9.088  0.00  0.00     0.037 C 
ENDBRANCH  20  23
ENDBRANCH  16  17
ENDBRANCH  13  16
ENDBRANCH   8  10
ENDBRANCH   1   8
BRANCH   6  25
ATOM     25  C19 ZIN AC000       4.928 -12.238   3.386  0.00  0.00     0.002 A 
ATOM     26  C32 ZIN AC000       5.750 -12.492   2.292  0.00  0.00     0.046 A 
ATOM     27  C31 ZIN AC000       6.345 -13.736   2.156  0.00  0.00     0.069 A 
ATOM     28  C23 ZIN AC000       6.107 -14.737   3.114  0.00  0.00     0.124 A 
ATOM     29  N27 ZIN AC000       7.191 -14.297   1.220  0.00  0.00    -0.329 N 
ATOM     30  C21 ZIN AC000       5.273 -14.467   4.206  0.00  0.00     0.148 A 
ATOM     31  N24 ZIN AC000       6.805 -15.833   2.722  0.00  0.00    -0.230 NA
ATOM     32  C20 ZIN AC000       4.695 -13.237   4.337  0.00  0.00     0.058 A 
ATOM     33  F22 ZIN AC000       5.040 -15.425   5.131  0.00  0.00    -0.203 F 
ATOM     34  C25 ZIN AC000       7.439 -15.575   1.615  0.00  0.00     0.104 A 
ATOM     35  C26 ZIN AC000       8.319 -16.551   0.877  0.00  0.00     0.091 C 
BRANCH  29  36
ATOM     36  C28 ZIN AC000       7.723 -13.639   0.024  0.00  0.00     0.083 C 
ATOM     37  C29 ZIN AC000       6.569 -13.265  -0.908  0.00  0.00     0.032 C 
ATOM     38  C30 ZIN AC000       8.480 -12.374   0.432  0.00  0.00     0.032 C 
ENDBRANCH  29  36
ENDBRANCH   6  25
TORSDOF 7
