REMARK  3 active torsions:
REMARK  status: ('A' for Active; 'I' for Inactive)
REMARK    1  A    between atoms: O2_2  and  C3_3 
REMARK    2  A    between atoms: C3_3  and  C5_5 
REMARK    3  A    between atoms: C10_10  and  O11_11 
ROOT
ATOM      1  C5  <0> d           0.680  -2.085   1.091  0.00  0.00     0.072 A 
ATOM      2  C6  <0> d           0.101  -2.852   0.077  0.00  0.00     0.020 A 
ATOM      3  C7  <0> d           0.160  -4.228   0.137  0.00  0.00     0.001 A 
ATOM      4  C8  <0> d           0.791  -4.854   1.200  0.00  0.00     0.003 A 
ATOM      5  C9  <0> d           1.367  -4.108   2.209  0.00  0.00     0.037 A 
ATOM      6  C10 <0> d           1.322  -2.723   2.162  0.00  0.00     0.082 A 
ENDROOT
BRANCH   1   7
ATOM      7  C3  <0> d           0.621  -0.613   1.033  0.00  0.00     0.295 C 
ATOM      8  O4  <0> d           1.129   0.051   1.914  0.00  0.00    -0.259 OA
BRANCH   7   9
ATOM      9  O2  <0> d           0.002  -0.004   0.002  0.00  0.00    -0.322 OA
ATOM     10  C1  <0> d          -0.018   1.448   0.010  0.00  0.00     0.213 C 
ENDBRANCH   7   9
ENDBRANCH   1   7
BRANCH   6  11
ATOM     11  O11 <0> d           1.888  -1.989   3.152  0.00  0.00    -0.360 OA
ATOM     12  H19 <0> d           2.816  -1.766   2.996  0.00  0.00     0.217 HD
ENDBRANCH   6  11
TORSDOF 3
