REMARK  6 active torsions:
REMARK  status: ('A' for Active; 'I' for Inactive)
REMARK    1  A    between atoms: C2_2  and  C4_3 
REMARK    2  A    between atoms: C2_2  and  C9_8 
REMARK    3  A    between atoms: C4_3  and  C5_4 
REMARK    4  A    between atoms: C5_4  and  C6_5 
REMARK    5  A    between atoms: C17_13  and  O19_14 
REMARK    6  A    between atoms: C24_18  and  O26_19 
ROOT
ATOM      1  C9  ZIN AC000       0.732  -0.479   1.239  0.00  0.00    -0.002 C 
ATOM      2  C11 ZIN AC000       0.789  -2.027   1.202  0.00  0.00     0.006 C 
ATOM      3  C12 ZIN AC000       2.292  -2.411   1.264  0.00  0.00     0.006 C 
ATOM      4  C13 ZIN AC000       2.931  -1.189   1.934  0.00  0.00     0.001 C 
ATOM      5  C15 ZIN AC000       4.417  -1.002   1.690  0.00  0.00     0.024 C 
ATOM      6  C17 ZIN AC000       5.205  -2.174   2.275  0.00  0.00     0.123 C 
ATOM      7  C20 ZIN AC000       6.701  -1.940   2.056  0.00  0.00     0.037 C 
ATOM      8  C21 ZIN AC000       7.124  -0.646   2.752  0.00  0.00    -0.001 C 
ATOM      9  C23 ZIN AC000       6.846  -0.761   4.253  0.00  0.00     0.037 C 
ATOM     10  C24 ZIN AC000       7.271   0.533   4.950  0.00  0.00     0.118 C 
ATOM     11  C27 ZIN AC000       6.479   1.708   4.374  0.00  0.00     0.032 C 
ATOM     12  C28 ZIN AC000       6.756   1.822   2.873  0.00  0.00     0.012 C 
ATOM     13  C29 ZIN AC000       6.330   0.529   2.176  0.00  0.00    -0.036 C 
ATOM     14  C30 ZIN AC000       6.607   0.643   0.676  0.00  0.00     0.016 C 
ATOM     15  C31 ZIN AC000       4.832   0.306   2.381  0.00  0.00     0.001 C 
ATOM     16  C33 ZIN AC000       4.049   1.501   1.846  0.00  0.00     0.007 C 
ATOM     17  C34 ZIN AC000       2.532   1.268   1.947  0.00  0.00     0.010 C 
ATOM     18  C35 ZIN AC000       2.186  -0.020   1.233  0.00  0.00    -0.036 C 
ATOM     19  C36 ZIN AC000       2.708   0.030  -0.204  0.00  0.00     0.016 C 
ENDROOT
BRANCH   1  20
ATOM     20  C2  ZIN AC000       0.002   0.054   0.004  0.00  0.00    -0.013 C 
ATOM     21  C1  ZIN AC000       0.015   1.583   0.025  0.00  0.00     0.010 C 
BRANCH  20  22
ATOM     22  C4  ZIN AC000      -1.444  -0.444   0.012  0.00  0.00     0.015 C 
BRANCH  22  23
ATOM     23  C5  ZIN AC000      -2.138  -0.016  -1.283  0.00  0.00     0.113 C 
BRANCH  23  24
ATOM     24  C6  ZIN AC000      -3.563  -0.507  -1.275  0.00  0.00     0.172 C 
ATOM     25  O7  ZIN AC000      -3.985  -1.140  -0.322  0.00  0.00    -0.648 OA
ATOM     26  O8  ZIN AC000      -4.295  -0.271  -2.222  0.00  0.00    -0.648 OA
ENDBRANCH  23  24
ENDBRANCH  22  23
ENDBRANCH  20  22
ENDBRANCH   1  20
BRANCH   6  27
ATOM     27  O19 ZIN AC000       4.811  -3.385   1.626  0.00  0.00    -0.395 OA
ATOM     28  H48 ZIN AC000       5.272  -4.171   1.948  0.00  0.00     0.210 HD
ENDBRANCH   6  27
BRANCH  10  29
ATOM     29  O26 ZIN AC000       7.012   0.426   6.352  0.00  0.00    -0.396 OA
ATOM     30  H53 ZIN AC000       7.258   1.212   6.858  0.00  0.00     0.210 HD
ENDBRANCH  10  29
TORSDOF 6
