REMARK  1 active torsions:
REMARK  status: ('A' for Active; 'I' for Inactive)
REMARK    1  A    between atoms: C2_2  and  C3_3 
ROOT
ATOM      1  C3  ZIN AC000      -1.433  -0.534   0.013  0.00  0.00     0.045 A 
ATOM      2  C4  ZIN AC000      -2.162  -0.083   1.280  0.00  0.00     0.026 C 
ATOM      3  C5  ZIN AC000      -1.446  -2.071  -0.106  0.00  0.00     0.122 A 
ATOM      4  C6  ZIN AC000      -2.197  -2.321  -1.396  0.00  0.00     0.225 A 
ATOM      5  O7  ZIN AC000      -2.436  -3.411  -1.869  0.00  0.00    -0.273 OA
ATOM      6  N8  ZIN AC000      -2.557  -1.148  -1.930  0.00  0.00    -0.297 N 
ATOM      7  C9  ZIN AC000      -2.179  -0.076  -1.222  0.00  0.00     0.233 A 
ATOM      8  O10 ZIN AC000      -2.400   1.077  -1.522  0.00  0.00    -0.272 OA
ATOM      9  H21 ZIN AC000      -3.050  -1.079  -2.763  0.00  0.00     0.171 HD
ENDROOT
BRANCH   1  10
ATOM     10  C2  ZIN AC000       0.002  -0.004   0.002  0.00  0.00     0.015 C 
ATOM     11  C1  ZIN AC000      -0.019   1.526   0.010  0.00  0.00     0.006 C 
ENDBRANCH   1  10
TORSDOF 1
