REMARK  20 active torsions:
REMARK  status: ('A' for Active; 'I' for Inactive)
REMARK    1  A    between atoms: C2_2  and  C4_4 
REMARK    2  A    between atoms: C4_4  and  C5_5 
REMARK    3  A    between atoms: C5_5  and  N7_6 
REMARK    4  A    between atoms: C5_5  and  C30_28 
REMARK       I    between atoms: N7_6  and  C8_7 
REMARK    5  A    between atoms: C8_7  and  C10_9 
REMARK    6  A    between atoms: C10_9  and  C12_10 
REMARK    7  A    between atoms: C10_9  and  N20_18 
REMARK    8  A    between atoms: C12_10  and  C13_11 
REMARK    9  A    between atoms: C13_11  and  C14_12 
REMARK       I    between atoms: N20_18  and  C21_19 
REMARK   10  A    between atoms: C21_19  and  C23_21 
REMARK   11  A    between atoms: C23_21  and  N24_22 
REMARK       I    between atoms: C30_28  and  N32_30 
REMARK   12  A    between atoms: N32_30  and  C33_31 
REMARK   13  A    between atoms: C33_31  and  C35_32 
REMARK   14  A    between atoms: C33_31  and  C42_39 
REMARK   15  A    between atoms: C35_32  and  C36_33 
REMARK       I    between atoms: C42_39  and  N44_41 
REMARK   16  A    between atoms: N44_41  and  C45_42 
REMARK   17  A    between atoms: C45_42  and  C47_43 
REMARK   18  A    between atoms: C45_42  and  C51_47 
REMARK   19  A    between atoms: C47_43  and  C48_44 
REMARK   20  A    between atoms: C51_47  and  C53_49 
ROOT
ATOM      1  C5  ZIN AC000       3.060  -8.598   4.214  0.00  0.00     0.177 C 
ENDROOT
BRANCH   1   2
ATOM      2  C4  ZIN AC000       2.861  -9.210   2.826  0.00  0.00     0.038 C 
BRANCH   2   3
ATOM      3  C2  ZIN AC000       4.219  -9.618   2.250  0.00  0.00    -0.020 C 
ATOM      4  C1  ZIN AC000       4.010 -10.342   0.918  0.00  0.00     0.009 C 
ATOM      5  C3  ZIN AC000       5.073  -8.370   2.023  0.00  0.00     0.009 C 
ENDBRANCH   2   3
ENDBRANCH   1   2
BRANCH   1   6
ATOM      6  N7  ZIN AC000       3.578  -9.619   5.128  0.00  0.00    -0.346 N 
ATOM      7  C8  ZIN AC000       4.902  -9.861   5.188  0.00  0.00     0.241 C 
ATOM      8  O9  ZIN AC000       5.666  -9.234   4.484  0.00  0.00    -0.271 OA
ATOM      9  H66 ZIN AC000       2.967 -10.120   5.691  0.00  0.00     0.163 HD
BRANCH   7  10
ATOM     10  C10 ZIN AC000       5.435 -10.912   6.128  0.00  0.00     0.177 C 
BRANCH  10  11
ATOM     11  C12 ZIN AC000       5.062 -10.545   7.566  0.00  0.00     0.039 C 
BRANCH  11  12
ATOM     12  C13 ZIN AC000       5.493 -11.672   8.507  0.00  0.00     0.041 C 
BRANCH  12  13
ATOM     13  C14 ZIN AC000       5.125 -11.311   9.924  0.00  0.00    -0.058 A 
ATOM     14  C19 ZIN AC000       3.891 -11.672  10.431  0.00  0.00     0.007 A 
ATOM     15  C18 ZIN AC000       3.555 -11.345  11.731  0.00  0.00     0.001 A 
ATOM     16  C17 ZIN AC000       4.451 -10.648  12.522  0.00  0.00     0.000 A 
ATOM     17  C16 ZIN AC000       5.683 -10.283  12.013  0.00  0.00     0.001 A 
ATOM     18  C15 ZIN AC000       6.020 -10.614  10.714  0.00  0.00     0.007 A 
ENDBRANCH  12  13
ENDBRANCH  11  12
ENDBRANCH  10  11
BRANCH  10  19
ATOM     19  N20 ZIN AC000       6.893 -10.983   6.005  0.00  0.00    -0.346 N 
ATOM     20  C21 ZIN AC000       7.541 -12.120   6.326  0.00  0.00     0.246 C 
ATOM     21  O22 ZIN AC000       6.918 -13.084   6.717  0.00  0.00    -0.272 OA
ATOM     22  H76 ZIN AC000       7.392 -10.212   5.692  0.00  0.00     0.163 HD
BRANCH  20  23
ATOM     23  C23 ZIN AC000       9.041 -12.194   6.199  0.00  0.00     0.374 C 
BRANCH  23  24
ATOM     24  N24 ZIN AC000       9.488 -13.568   6.465  0.00  0.00     0.101 N 
ATOM     25  C29 ZIN AC000       9.034 -14.483   5.408  0.00  0.00     0.299 C 
ATOM     26  C28 ZIN AC000       9.469 -15.909   5.754  0.00  0.00     0.198 C 
ATOM     27  O27 ZIN AC000      10.889 -15.941   5.924  0.00  0.00    -0.388 OA
ATOM     28  C26 ZIN AC000      11.366 -15.062   6.946  0.00  0.00     0.198 C 
ATOM     29  C25 ZIN AC000      10.950 -13.627   6.612  0.00  0.00     0.299 C 
ENDBRANCH  23  24
ENDBRANCH  20  23
ENDBRANCH  10  19
ENDBRANCH   7  10
ENDBRANCH   1   6
BRANCH   1  30
ATOM     30  C30 ZIN AC000       1.741  -8.084   4.731  0.00  0.00     0.241 C 
ATOM     31  O31 ZIN AC000       1.279  -8.527   5.761  0.00  0.00    -0.271 OA
ATOM     32  N32 ZIN AC000       1.075  -7.132   4.047  0.00  0.00    -0.346 N 
ATOM     33  H87 ZIN AC000       1.445  -6.777   3.224  0.00  0.00     0.163 HD
BRANCH  32  34
ATOM     34  C33 ZIN AC000      -0.208  -6.632   4.549  0.00  0.00     0.180 C 
BRANCH  34  35
ATOM     35  C35 ZIN AC000       0.042  -5.519   5.569  0.00  0.00     0.073 C 
BRANCH  35  36
ATOM     36  C36 ZIN AC000       0.747  -6.089   6.773  0.00  0.00    -0.056 A 
ATOM     37  C41 ZIN AC000       2.128  -6.121   6.815  0.00  0.00     0.007 A 
ATOM     38  C40 ZIN AC000       2.774  -6.640   7.921  0.00  0.00     0.001 A 
ATOM     39  C39 ZIN AC000       2.038  -7.136   8.981  0.00  0.00     0.000 A 
ATOM     40  C38 ZIN AC000       0.657  -7.109   8.937  0.00  0.00     0.001 A 
ATOM     41  C37 ZIN AC000       0.011  -6.586   7.833  0.00  0.00     0.007 A 
ENDBRANCH  35  36
ENDBRANCH  34  35
BRANCH  34  42
ATOM     42  C42 ZIN AC000      -1.019  -6.089   3.401  0.00  0.00     0.241 C 
ATOM     43  O43 ZIN AC000      -0.570  -6.117   2.275  0.00  0.00    -0.271 OA
ATOM     44  N44 ZIN AC000      -2.243  -5.573   3.626  0.00  0.00    -0.348 N 
ATOM     45  H95 ZIN AC000      -2.574  -5.487   4.534  0.00  0.00     0.163 HD
BRANCH  44  46
ATOM     46  C45 ZIN AC000      -3.075  -5.142   2.500  0.00  0.00     0.158 C 
BRANCH  46  47
ATOM     47  C47 ZIN AC000      -3.836  -6.344   1.938  0.00  0.00     0.037 C 
BRANCH  47  48
ATOM     48  C48 ZIN AC000      -4.597  -7.039   3.068  0.00  0.00    -0.020 C 
ATOM     49  C49 ZIN AC000      -5.884  -6.267   3.368  0.00  0.00     0.009 C 
ATOM     50  C50 ZIN AC000      -4.947  -8.467   2.645  0.00  0.00     0.009 C 
ENDBRANCH  47  48
ENDBRANCH  46  47
BRANCH  46  51
ATOM     51  C51 ZIN AC000      -4.057  -4.100   2.970  0.00  0.00     0.185 C 
ATOM     52  O52 ZIN AC000      -4.245  -3.938   4.152  0.00  0.00    -0.292 OA
BRANCH  51  53
ATOM     53  C53 ZIN AC000      -4.805  -3.262   1.966  0.00  0.00     0.141 A 
ATOM     54  O56 ZIN AC000      -4.151  -2.959   0.732  0.00  0.00    -0.367 OA
ATOM     55  C55 ZIN AC000      -4.256  -1.869   1.650  0.00  0.00     0.215 A 
ATOM     56  C54 ZIN AC000      -6.323  -3.454   1.940  0.00  0.00     0.057 C 
ENDBRANCH  51  53
ENDBRANCH  46  51
ENDBRANCH  44  46
ENDBRANCH  34  42
ENDBRANCH  32  34
ENDBRANCH   1  30
TORSDOF 20
