REMARK  4 active torsions:
REMARK  status: ('A' for Active; 'I' for Inactive)
REMARK    1  A    between atoms: C24_21  and  O25_22 
REMARK    2  A    between atoms: C24_21  and  C26_23 
REMARK    3  A    between atoms: C26_23  and  C28_25 
REMARK    4  A    between atoms: C28_25  and  O29_26 
ROOT
ATOM      1  C1  ZIN AC000       0.186   1.579   0.032  0.00  0.00     0.019 C 
ATOM      2  C2  ZIN AC000       0.107   0.051   0.037  0.00  0.00     0.005 C 
ATOM      3  C3  ZIN AC000      -1.323  -0.392   0.302  0.00  0.00     0.091 C 
ATOM      4  C4  ZIN AC000      -1.699   0.158   1.671  0.00  0.00     0.133 C 
ATOM      5  O5  ZIN AC000      -2.731   0.767   1.822  0.00  0.00    -0.297 OA
ATOM      6  C6  ZIN AC000      -0.771  -0.066   2.837  0.00  0.00     0.076 C 
ATOM      7  C8  ZIN AC000       0.678   0.264   2.435  0.00  0.00     0.003 C 
ATOM      8  C10 ZIN AC000       1.615  -0.112   3.580  0.00  0.00     0.010 C 
ATOM      9  C11 ZIN AC000       1.304   0.768   4.797  0.00  0.00     0.036 C 
ATOM     10  C12 ZIN AC000      -0.172   0.638   5.121  0.00  0.00    -0.063 A 
ATOM     11  C13 ZIN AC000      -0.532   0.362   6.367  0.00  0.00     0.058 A 
ATOM     12  C14 ZIN AC000      -1.952   0.205   6.720  0.00  0.00     0.171 A 
ATOM     13  O15 ZIN AC000      -2.287  -0.006   7.871  0.00  0.00    -0.289 OA
ATOM     14  C16 ZIN AC000      -2.958   0.309   5.650  0.00  0.00     0.052 A 
ATOM     15  C17 ZIN AC000      -2.578   0.594   4.414  0.00  0.00    -0.008 A 
ATOM     16  C18 ZIN AC000      -1.156   0.839   4.009  0.00  0.00     0.008 A 
ATOM     17  C19 ZIN AC000      -1.046   2.286   3.524  0.00  0.00     0.025 C 
ATOM     18  C20 ZIN AC000       0.992  -0.521   1.178  0.00  0.00     0.002 C 
ATOM     19  C22 ZIN AC000       2.410  -0.333   0.624  0.00  0.00     0.009 C 
ATOM     20  C23 ZIN AC000       2.258  -0.720  -0.872  0.00  0.00     0.047 C 
ATOM     21  C24 ZIN AC000       0.755  -0.507  -1.228  0.00  0.00     0.128 C 
ENDROOT
BRANCH  21  22
ATOM     22  O25 ZIN AC000       0.147  -1.754  -1.571  0.00  0.00    -0.381 OA
ATOM     23  H49 ZIN AC000       0.539  -2.183  -2.344  0.00  0.00     0.211 HD
ENDBRANCH  21  22
BRANCH  21  24
ATOM     24  C26 ZIN AC000       0.623   0.470  -2.367  0.00  0.00     0.184 C 
ATOM     25  O27 ZIN AC000       1.492   1.284  -2.569  0.00  0.00    -0.292 OA
BRANCH  24  26
ATOM     26  C28 ZIN AC000      -0.595   0.432  -3.255  0.00  0.00     0.245 C 
BRANCH  26  27
ATOM     27  O29 ZIN AC000      -0.488   1.448  -4.254  0.00  0.00    -0.393 OA
ATOM     28  H52 ZIN AC000      -1.239   1.482  -4.862  0.00  0.00     0.209 HD
ENDBRANCH  26  27
ENDBRANCH  24  26
ENDBRANCH  21  24
TORSDOF 4
