REMARK  7 active torsions:
REMARK  status: ('A' for Active; 'I' for Inactive)
REMARK       I    between atoms: C2_2  and  N4_4 
REMARK    1  A    between atoms: N7_7  and  C8_8 
REMARK    2  A    between atoms: C11_11  and  O12_12 
REMARK    3  A    between atoms: O12_12  and  C13_13 
REMARK    4  A    between atoms: C13_13  and  C14_14 
REMARK    5  A    between atoms: C18_17  and  C19_18 
REMARK    6  A    between atoms: C18_17  and  C26_25 
REMARK    7  A    between atoms: C19_18  and  N20_19 
ROOT
ATOM      1  C14 <0> d          -9.340  -6.806  -1.229  0.00  0.00     0.173 C 
ATOM      2  C16 <0> d          -9.284  -8.345  -1.391  0.00  0.00     0.206 C 
ATOM      3  O17 <0> d         -10.490  -8.786  -0.735  0.00  0.00    -0.347 OA
ATOM      4  C18 <0> d         -10.892  -7.744   0.164  0.00  0.00     0.212 C 
ATOM      5  O34 <0> d          -9.940  -6.669   0.082  0.00  0.00    -0.340 OA
ENDROOT
BRANCH   1   6
ATOM      6  C13 <0> d          -7.935  -6.201  -1.254  0.00  0.00     0.209 C 
BRANCH   6   7
ATOM      7  O12 <0> d          -8.026  -4.779  -1.146  0.00  0.00    -0.349 OA
BRANCH   7   8
ATOM      8  C11 <0> d          -6.858  -4.083  -1.152  0.00  0.00     0.069 A 
ATOM      9  C10 <0> d          -6.874  -2.700  -1.051  0.00  0.00     0.039 A 
ATOM     10  C9  <0> d          -5.688  -1.992  -1.057  0.00  0.00     0.032 A 
ATOM     11  C8  <0> d          -4.479  -2.666  -1.165  0.00  0.00     0.030 A 
ATOM     12  C36 <0> d          -4.463  -4.051  -1.272  0.00  0.00     0.032 A 
ATOM     13  C35 <0> d          -5.650  -4.757  -1.261  0.00  0.00     0.039 A 
BRANCH  11  14
ATOM     14  N7  <0> d          -3.276  -1.950  -1.172  0.00  0.00    -0.378 N 
ATOM     15  C6  <0> d          -1.986  -2.654  -1.163  0.00  0.00     0.143 C 
ATOM     16  C5  <0> d          -1.158  -2.174  -2.361  0.00  0.00     0.145 C 
ATOM     17  N4  <0> d          -1.163  -0.704  -2.376  0.00  0.00    -0.349 N 
ATOM     18  C2  <0> d          -0.005  -0.015  -2.382  0.00  0.00     0.215 C 
ATOM     19  C38 <0> d          -2.453  -0.000  -2.379  0.00  0.00     0.145 C 
ATOM     20  C1  <0> d           1.310  -0.750  -2.379  0.00  0.00     0.117 C 
ATOM     21  O3  <0> d          -0.021   1.198  -2.389  0.00  0.00    -0.274 OA
ATOM     22  C37 <0> d          -3.281  -0.481  -1.187  0.00  0.00     0.143 C 
ENDBRANCH  11  14
ENDBRANCH   7   8
ENDBRANCH   6   7
ENDBRANCH   1   6
BRANCH   4  23
ATOM     23  C19 <0> d         -12.279  -7.232  -0.230  0.00  0.00     0.203 C 
BRANCH  23  24
ATOM     24  N20 <0> d         -12.240  -6.723  -1.603  0.00  0.00    -0.346 N 
ATOM     25  C25 <0> d         -12.477  -7.431  -2.728  0.00  0.00     0.182 A 
ATOM     26  N23 <0> d         -12.352  -6.637  -3.756  0.00  0.00    -0.361 N 
ATOM     27  C22 <0> d         -12.026  -5.408  -3.329  0.00  0.00     0.106 A 
ATOM     28  H24 <0> d         -12.472  -6.896  -4.683  0.00  0.00     0.166 HD
ATOM     29  C21 <0> d         -11.951  -5.440  -1.985  0.00  0.00     0.109 A 
ENDBRANCH  23  24
ENDBRANCH   4  23
BRANCH   4  30
ATOM     30  C26 <0> d         -10.930  -8.276   1.573  0.00  0.00     0.027 A 
ATOM     31  C32 <0> d          -9.784  -8.801   2.145  0.00  0.00     0.047 A 
ATOM     32  C31 <0> d          -9.818  -9.284   3.441  0.00  0.00     0.048 A 
ATOM     33 Cl33 <0> d          -8.302  -8.840   1.242  0.00  0.00    -0.084 Cl
ATOM     34  C29 <0> d         -10.999  -9.253   4.160  0.00  0.00     0.035 A 
ATOM     35  C28 <0> d         -12.145  -8.734   3.585  0.00  0.00     0.024 A 
ATOM     36 Cl30 <0> d         -11.044  -9.866   5.783  0.00  0.00    -0.084 Cl
ATOM     37  C27 <0> d         -12.110  -8.246   2.292  0.00  0.00     0.016 A 
ENDBRANCH   4  30
TORSDOF 7
