REMARK  4 active torsions:
REMARK  status: ('A' for Active; 'I' for Inactive)
REMARK    1  A    between atoms: C2_2  and  C4_4 
REMARK    2  A    between atoms: C4_4  and  C5_5 
REMARK    3  A    between atoms: C10_10  and  N11_11 
REMARK    4  A    between atoms: N11_11  and  C12_12 
ROOT
ATOM      1  C5  <0> d          -2.139   0.917   0.018  0.00  0.00    -0.021 A 
ATOM      2  C6  <0> d          -2.606   0.572  -1.234  0.00  0.00     0.010 A 
ATOM      3  C7  <0> d          -3.718  -0.242  -1.360  0.00  0.00     0.001 A 
ATOM      4  C8  <0> d          -4.365  -0.712  -0.232  0.00  0.00     0.002 A 
ATOM      5  C9  <0> d          -3.904  -0.370   1.024  0.00  0.00     0.030 A 
ATOM      6  C10 <0> d          -2.784   0.442   1.154  0.00  0.00     0.039 A 
ENDROOT
BRANCH   6   7
ATOM      7  N11 <0> d          -2.315   0.790   2.423  0.00  0.00    -0.353 N 
ATOM      8  H26 <0> d          -1.919   0.114   2.995  0.00  0.00     0.166 HD
BRANCH   7   9
ATOM      9  C12 <0> d          -2.416   2.112   2.868  0.00  0.00     0.076 A 
ATOM     10  C18 <0> d          -1.518   2.601   3.808  0.00  0.00     0.062 A 
ATOM     11  C17 <0> d          -1.617   3.910   4.242  0.00  0.00     0.026 A 
ATOM     12 Cl19 <0> d          -0.263   1.574   4.428  0.00  0.00    -0.082 Cl
ATOM     13  C16 <0> d          -2.616   4.729   3.749  0.00  0.00     0.003 A 
ATOM     14  C15 <0> d          -3.516   4.244   2.817  0.00  0.00     0.026 A 
ATOM     15  C13 <0> d          -3.419   2.938   2.375  0.00  0.00     0.062 A 
ATOM     16 Cl14 <0> d          -4.549   2.331   1.205  0.00  0.00    -0.082 Cl
ENDBRANCH   7   9
ENDBRANCH   6   7
BRANCH   1  17
ATOM     17  C4  <0> d          -0.928   1.804   0.154  0.00  0.00     0.153 C 
BRANCH  17  18
ATOM     18  C2  <0> d           0.303   0.950   0.320  0.00  0.00     0.177 C 
ATOM     19  O1  <0> d           0.205  -0.265   0.327  0.00  0.00    -0.648 OA
ATOM     20  O3  <0> d           1.397   1.474   0.442  0.00  0.00    -0.648 OA
ENDBRANCH  17  18
ENDBRANCH   1  17
TORSDOF 4
