REMARK  6 active torsions:
REMARK  status: ('A' for Active; 'I' for Inactive)
REMARK    1  A    between atoms: C2_2  and  C3_3 
REMARK    2  A    between atoms: C3_3  and  C4_4 
REMARK    3  A    between atoms: C26_21  and  O28_22 
REMARK    4  A    between atoms: C32_26  and  C33_27 
REMARK    5  A    between atoms: C33_27  and  C35_29 
REMARK    6  A    between atoms: C35_29  and  O36_30 
ROOT
ATOM      1  C4  ZIN AC000       0.791  -1.507  -1.405  0.00  0.00     0.262 C 
ATOM      2  O6  ZIN AC000       1.576  -2.075  -0.336  0.00  0.00    -0.352 OA
ATOM      3  C7  ZIN AC000       1.829  -3.436  -0.739  0.00  0.00     0.168 C 
ATOM      4  C9  ZIN AC000       3.323  -3.750  -0.453  0.00  0.00     0.041 C 
ATOM      5  C10 ZIN AC000       4.026  -3.297  -1.737  0.00  0.00     0.004 C 
ATOM      6  C12 ZIN AC000       5.386  -3.918  -1.997  0.00  0.00    -0.001 C 
ATOM      7  C14 ZIN AC000       6.361  -3.515  -0.890  0.00  0.00     0.010 C 
ATOM      8  C15 ZIN AC000       7.723  -4.173  -1.135  0.00  0.00     0.036 C 
ATOM      9  C16 ZIN AC000       8.184  -3.795  -2.530  0.00  0.00    -0.064 A 
ATOM     10  C17 ZIN AC000       9.396  -3.282  -2.689  0.00  0.00     0.058 A 
ATOM     11  C18 ZIN AC000       9.870  -2.883  -4.024  0.00  0.00     0.171 A 
ATOM     12  O19 ZIN AC000      10.996  -2.447  -4.179  0.00  0.00    -0.289 OA
ATOM     13  C20 ZIN AC000       8.953  -3.025  -5.167  0.00  0.00     0.052 A 
ATOM     14  C21 ZIN AC000       7.750  -3.547  -4.986  0.00  0.00    -0.009 A 
ATOM     15  C22 ZIN AC000       7.237  -4.026  -3.671  0.00  0.00     0.004 A 
ATOM     16  C23 ZIN AC000       6.999  -5.534  -3.782  0.00  0.00     0.025 C 
ATOM     17  C24 ZIN AC000       5.877  -3.399  -3.358  0.00  0.00     0.035 C 
ATOM     18  C26 ZIN AC000       4.895  -3.739  -4.476  0.00  0.00     0.124 C 
ATOM     19  C29 ZIN AC000       3.477  -3.239  -4.156  0.00  0.00     0.045 C 
ATOM     20  C30 ZIN AC000       3.050  -3.812  -2.829  0.00  0.00     0.004 C 
ATOM     21  C31 ZIN AC000       3.183  -5.336  -2.855  0.00  0.00     0.019 C 
ATOM     22  C32 ZIN AC000       1.665  -3.422  -2.288  0.00  0.00     0.160 C 
ATOM     23  O37 ZIN AC000       1.370  -2.048  -2.612  0.00  0.00    -0.339 OA
ENDROOT
BRANCH  22  24
ATOM     24  C33 ZIN AC000       0.601  -4.399  -2.717  0.00  0.00     0.188 C 
ATOM     25  O34 ZIN AC000       0.867  -5.571  -2.829  0.00  0.00    -0.292 OA
BRANCH  24  26
ATOM     26  C35 ZIN AC000      -0.795  -3.913  -3.008  0.00  0.00     0.245 C 
BRANCH  26  27
ATOM     27  O36 ZIN AC000      -1.615  -5.019  -3.393  0.00  0.00    -0.393 OA
ATOM     28  H65 ZIN AC000      -2.529  -4.779  -3.595  0.00  0.00     0.209 HD
ENDBRANCH  26  27
ENDBRANCH  24  26
ENDBRANCH  22  24
BRANCH   1  29
ATOM     29  C3  ZIN AC000       0.902   0.019  -1.397  0.00  0.00     0.060 C 
BRANCH  29  30
ATOM     30  C2  ZIN AC000       0.209   0.574  -0.151  0.00  0.00     0.000 C 
ATOM     31  C1  ZIN AC000       0.321   2.100  -0.144  0.00  0.00     0.005 C 
ENDBRANCH  29  30
ENDBRANCH   1  29
BRANCH  18  32
ATOM     32  O28 ZIN AC000       4.860  -5.157  -4.650  0.00  0.00    -0.395 OA
ATOM     33  H57 ZIN AC000       4.256  -5.452  -5.345  0.00  0.00     0.210 HD
ENDBRANCH  18  32
TORSDOF 6
