REMARK  9 active torsions:
REMARK  status: ('A' for Active; 'I' for Inactive)
REMARK    1  A    between atoms: N9_9  and  C10_10 
REMARK    2  A    between atoms: C10_10  and  C11_11 
REMARK    3  A    between atoms: C11_11  and  O13_12 
REMARK    4  A    between atoms: C11_11  and  C14_13 
REMARK    5  A    between atoms: C14_13  and  O16_14 
REMARK    6  A    between atoms: C14_13  and  C17_15 
REMARK    7  A    between atoms: C17_15  and  O19_16 
REMARK    8  A    between atoms: C17_15  and  C20_17 
REMARK    9  A    between atoms: C20_17  and  O21_18 
ROOT
ATOM      1  C1  <0> d          -0.018   1.503   0.010  0.00  0.00     0.049 C 
ATOM      2  C2  <0> d           0.002  -0.004   0.002  0.00  0.00    -0.054 A 
ATOM      3  C3  <0> d           0.006  -0.671  -1.185  0.00  0.00     0.041 A 
ATOM      4  C4  <0> d           0.025  -2.080  -1.201  0.00  0.00     0.085 A 
ATOM      5  C5  <0> d           0.041  -2.783   0.025  0.00  0.00     0.065 A 
ATOM      6  C6  <0> d           0.037  -2.075   1.224  0.00  0.00     0.039 A 
ATOM      7  C7  <0> d           0.023  -0.698   1.208  0.00  0.00    -0.054 A 
ATOM      8  C8  <0> d           0.019   0.064   2.508  0.00  0.00     0.049 C 
ATOM      9  N9  <0> d           0.060  -4.162   0.036  0.00  0.00    -0.325 N 
ATOM     10  C22 <0> d           0.063  -4.822  -1.156  0.00  0.00     0.170 A 
ATOM     11  N23 <0> d           0.079  -6.142  -1.233  0.00  0.00    -0.173 NA
ATOM     12  C24 <0> d           0.081  -6.771  -2.405  0.00  0.00     0.350 A 
ATOM     13  O25 <0> d           0.096  -7.989  -2.400  0.00  0.00    -0.244 OA
ATOM     14  N26 <0> d           0.066  -6.147  -3.592  0.00  0.00    -0.272 N 
ATOM     15  C27 <0> d           0.049  -4.797  -3.677  0.00  0.00     0.282 A 
ATOM     16  O28 <0> d           0.036  -4.229  -4.752  0.00  0.00    -0.265 OA
ATOM     17  C29 <0> d           0.046  -4.041  -2.404  0.00  0.00     0.171 A 
ATOM     18  N30 <0> d           0.028  -2.733  -2.370  0.00  0.00    -0.237 NA
ATOM     19  H47 <0> d           0.068  -6.675  -4.406  0.00  0.00     0.174 HD
ENDROOT
BRANCH   9  20
ATOM     20  C10 <0> d           0.075  -4.900   1.301  0.00  0.00     0.165 C 
BRANCH  20  21
ATOM     21  C11 <0> d          -1.361  -5.177   1.748  0.00  0.00     0.167 C 
BRANCH  21  22
ATOM     22  O13 <0> d          -2.051  -3.939   1.928  0.00  0.00    -0.391 OA
ATOM     23  H41 <0> d          -1.652  -3.359   2.592  0.00  0.00     0.210 HD
ENDBRANCH  21  22
BRANCH  21  24
ATOM     24  C14 <0> d          -1.345  -5.949   3.069  0.00  0.00     0.179 C 
BRANCH  24  25
ATOM     25  O16 <0> d          -0.655  -7.187   2.889  0.00  0.00    -0.390 OA
ATOM     26  H42 <0> d          -1.054  -7.766   2.225  0.00  0.00     0.210 HD
ENDBRANCH  24  25
BRANCH  24  27
ATOM     27  C17 <0> d          -2.781  -6.225   3.516  0.00  0.00     0.173 C 
BRANCH  27  28
ATOM     28  O19 <0> d          -3.471  -4.987   3.697  0.00  0.00    -0.391 OA
ATOM     29  H43 <0> d          -3.072  -4.407   4.360  0.00  0.00     0.210 HD
ENDBRANCH  27  28
BRANCH  27  30
ATOM     30  C20 <0> d          -2.765  -6.997   4.838  0.00  0.00     0.198 C 
BRANCH  30  31
ATOM     31  O21 <0> d          -4.101  -7.357   5.196  0.00  0.00    -0.398 OA
ATOM     32  H46 <0> d          -4.166  -7.849   6.025  0.00  0.00     0.209 HD
ENDBRANCH  30  31
ENDBRANCH  27  30
ENDBRANCH  24  27
ENDBRANCH  21  24
ENDBRANCH  20  21
ENDBRANCH   9  20
TORSDOF 9
