REMARK  8 active torsions:
REMARK  status: ('A' for Active; 'I' for Inactive)
REMARK    1  A    between atoms: C2_2  and  N3_3 
REMARK    2  A    between atoms: N3_3  and  C5_5 
REMARK    3  A    between atoms: N3_3  and  C7_7 
REMARK    4  A    between atoms: C7_7  and  C8_8 
REMARK    5  A    between atoms: C8_8  and  C9_9 
REMARK    6  A    between atoms: C9_9  and  C10_10 
REMARK    7  A    between atoms: C10_10  and  N13_12 
REMARK    8  A    between atoms: N13_12  and  C14_13 
ROOT
ATOM      1  N13 <0> d           1.284  -3.571   3.412  0.00  0.00    -0.385 N 
ATOM      2  H45 <0> d           1.739  -3.605   2.556  0.00  0.00     0.160 HD
ENDROOT
BRANCH   1   3
ATOM      3  C10 <0> d          -0.140  -3.903   3.499  0.00  0.00     0.077 C 
ATOM      4  C12 <0> d          -0.298  -5.375   3.886  0.00  0.00     0.032 C 
BRANCH   3   5
ATOM      5  C9  <0> d          -0.805  -3.658   2.143  0.00  0.00     0.026 C 
BRANCH   5   6
ATOM      6  C8  <0> d          -0.756  -2.164   1.814  0.00  0.00     0.030 C 
BRANCH   6   7
ATOM      7  C7  <0> d          -1.421  -1.919   0.458  0.00  0.00     0.235 C 
BRANCH   7   8
ATOM      8  N3  <0> d          -1.374  -0.485   0.142  0.00  0.00    -0.072 N 
ATOM      9  H4  <0> d          -1.792   0.039   0.895  0.00  0.00     0.279 HD
BRANCH   8  10
ATOM     10  C2  <0> d           0.024  -0.066  -0.029  0.00  0.00     0.230 C 
ATOM     11  C1  <0> d           0.082   1.451  -0.216  0.00  0.00     0.034 C 
ENDBRANCH   8  10
BRANCH   8  12
ATOM     12  C5  <0> d          -2.116  -0.233  -1.101  0.00  0.00     0.230 C 
ATOM     13  C6  <0> d          -3.600  -0.533  -0.879  0.00  0.00     0.034 C 
ENDBRANCH   8  12
ENDBRANCH   7   8
ENDBRANCH   6   7
ENDBRANCH   5   6
ENDBRANCH   3   5
ENDBRANCH   1   3
BRANCH   1  14
ATOM     14  C14 <0> d           1.982  -3.209   4.554  0.00  0.00     0.042 A 
ATOM     15  C25 <0> d           1.355  -3.153   5.788  0.00  0.00     0.047 A 
ATOM     16  C24 <0> d           2.082  -2.790   6.914  0.00  0.00     0.090 A 
ATOM     17  N22 <0> d           3.357  -2.487   6.846  0.00  0.00    -0.365 N 
ATOM     18  C21 <0> d           4.026  -2.514   5.688  0.00  0.00     0.046 A 
ATOM     19  H23 <0> d           3.827  -2.236   7.657  0.00  0.00     0.165 HD
ATOM     20  C15 <0> d           3.357  -2.878   4.494  0.00  0.00     0.017 A 
ATOM     21  C20 <0> d           5.391  -2.186   5.632  0.00  0.00     0.054 A 
ATOM     22  C16 <0> d           4.062  -2.905   3.283  0.00  0.00     0.018 A 
ATOM     23  C17 <0> d           5.385  -2.580   3.266  0.00  0.00     0.025 A 
ATOM     24  C18 <0> d           6.047  -2.221   4.439  0.00  0.00     0.036 A 
ATOM     25 Cl19 <0> d           7.733  -1.814   4.378  0.00  0.00    -0.084 Cl
ENDBRANCH   1  14
TORSDOF 8
