REMARK  8 active torsions:
REMARK  status: ('A' for Active; 'I' for Inactive)
REMARK    1  A    between atoms: C2_2  and  C4_4 
REMARK    2  A    between atoms: C4_4  and  C5_5 
REMARK    3  A    between atoms: C5_5  and  C6_6 
REMARK    4  A    between atoms: C6_6  and  C7_7 
REMARK    5  A    between atoms: C7_7  and  C8_8 
REMARK    6  A    between atoms: C8_8  and  C9_9 
REMARK    7  A    between atoms: C9_9  and  C10_10 
REMARK    8  A    between atoms: C10_10  and  C11_11 
ROOT
ATOM      1  C7  <0> d          -4.963   0.678   0.029  0.00  0.00     0.000 C 
ENDROOT
BRANCH   1   2
ATOM      2  C6  <0> d          -3.814   1.688   0.029  0.00  0.00     0.001 C 
BRANCH   2   3
ATOM      3  C5  <0> d          -2.479   0.941   0.019  0.00  0.00     0.010 C 
BRANCH   3   4
ATOM      4  C4  <0> d          -1.330   1.951   0.019  0.00  0.00     0.113 C 
BRANCH   4   5
ATOM      5  C2  <0> d          -0.015   1.215   0.009  0.00  0.00     0.172 C 
ATOM      6  O1  <0> d           0.002  -0.004   0.002  0.00  0.00    -0.648 OA
ATOM      7  O3  <0> d           1.033   1.839   0.002  0.00  0.00    -0.648 OA
ENDBRANCH   4   5
ENDBRANCH   3   4
ENDBRANCH   2   3
ENDBRANCH   1   2
BRANCH   1   8
ATOM      8  C8  <0> d          -6.299   1.425   0.040  0.00  0.00     0.001 C 
BRANCH   8   9
ATOM      9  C9  <0> d          -7.448   0.415   0.040  0.00  0.00     0.010 C 
BRANCH   9  10
ATOM     10  C10 <0> d          -8.783   1.162   0.050  0.00  0.00     0.113 C 
BRANCH  10  11
ATOM     11  C11 <0> d          -9.915   0.167   0.050  0.00  0.00     0.172 C 
ATOM     12  O12 <0> d          -9.676  -1.029   0.042  0.00  0.00    -0.648 OA
ATOM     13  O13 <0> d         -11.070   0.558   0.058  0.00  0.00    -0.648 OA
ENDBRANCH  10  11
ENDBRANCH   9  10
ENDBRANCH   8   9
ENDBRANCH   1   8
TORSDOF 8
