REMARK  5 active torsions:
REMARK  status: ('A' for Active; 'I' for Inactive)
REMARK    1  A    between atoms: C2_2  and  O4_3 
REMARK    2  A    between atoms: C2_2  and  C5_4 
REMARK    3  A    between atoms: C5_4  and  O7_5 
REMARK    4  A    between atoms: C5_4  and  C8_6 
REMARK    5  A    between atoms: C18_15  and  N19_16 
ROOT
ATOM      1  C8  <0> d          -1.413  -2.059   0.130  0.00  0.00     0.131 C 
ATOM      2  C10 <0> d          -2.852  -2.596   0.159  0.00  0.00     0.149 C 
ATOM      3  N11 <0> d          -3.516  -2.076   1.363  0.00  0.00    -0.370 N 
ATOM      4  C12 <0> d          -2.844  -2.120   2.574  0.00  0.00     0.175 A 
ATOM      5  C13 <0> d          -1.468  -2.305   2.596  0.00  0.00     0.146 A 
ATOM      6  N14 <0> d          -0.754  -2.453   1.386  0.00  0.00    -0.373 N 
ATOM      7  C15 <0> d          -0.806  -2.343   3.828  0.00  0.00     0.313 A 
ATOM      8  O16 <0> d           0.404  -2.503   3.881  0.00  0.00    -0.263 OA
ATOM      9  N17 <0> d          -1.535  -2.198   4.956  0.00  0.00    -0.020 NA
ATOM     10  C18 <0> d          -2.882  -2.021   4.882  0.00  0.00     0.725 A 
ATOM     11  N20 <0> d          -3.511  -1.984   3.727  0.00  0.00    -0.043 NA
ATOM     12  H28 <0> d          -4.412  -1.708   1.310  0.00  0.00     0.161 HD
ATOM     13  H29 <0> d           0.150  -2.805   1.383  0.00  0.00     0.160 HD
ENDROOT
BRANCH   1  14
ATOM     14  C5  <0> d          -1.433  -0.534   0.013  0.00  0.00     0.170 C 
BRANCH  14  15
ATOM     15  C2  <0> d           0.002  -0.004   0.002  0.00  0.00     0.145 C 
ATOM     16  C1  <0> d          -0.019   1.526   0.010  0.00  0.00     0.042 C 
BRANCH  15  17
ATOM     17  O4  <0> d           0.693  -0.477   1.160  0.00  0.00    -0.393 OA
ATOM     18  H24 <0> d           0.294  -0.202   1.996  0.00  0.00     0.210 HD
ENDBRANCH  15  17
ENDBRANCH  14  15
BRANCH  14  19
ATOM     19  O7  <0> d          -2.137   0.021   1.126  0.00  0.00    -0.391 OA
ATOM     20  H25 <0> d          -1.747  -0.195   1.985  0.00  0.00     0.210 HD
ENDBRANCH  14  19
ENDBRANCH   1  14
BRANCH  10  21
ATOM     21  N19 <0> d          -3.603  -1.878   6.041  0.00  0.00    -0.231 N 
ATOM     22  H30 <0> d          -3.152  -1.904   6.899  0.00  0.00     0.174 HD
ATOM     23  H31 <0> d          -4.564  -1.752   6.002  0.00  0.00     0.174 HD
ENDBRANCH  10  21
TORSDOF 5
