REMARK  15 active torsions:
REMARK  status: ('A' for Active; 'I' for Inactive)
REMARK    1  A    between atoms: C2_2  and  C3_3 
REMARK    2  A    between atoms: C3_3  and  O5_5 
REMARK    3  A    between atoms: O5_5  and  C6_6 
REMARK    4  A    between atoms: C6_6  and  O8_7 
REMARK    5  A    between atoms: C6_6  and  C40_37 
REMARK    6  A    between atoms: O8_7  and  P9_8 
REMARK    7  A    between atoms: P9_8  and  C11_10 
REMARK    8  A    between atoms: P9_8  and  C21_20 
REMARK    9  A    between atoms: C11_10  and  C12_11 
REMARK   10  A    between atoms: C12_11  and  C13_12 
REMARK   11  A    between atoms: C13_12  and  C14_13 
REMARK   12  A    between atoms: C14_13  and  C15_14 
REMARK   13  A    between atoms: C21_20  and  C22_21 
REMARK       I    between atoms: C22_21  and  N24_23 
REMARK   14  A    between atoms: C26_25  and  C28_26 
REMARK   15  A    between atoms: C35_33  and  C37_34 
ROOT
ATOM      1  P9  ZIN AC000       3.876  -1.378   3.789  0.00  0.00     0.208 P 
ATOM      2  O10 ZIN AC000       2.994  -0.694   4.761  0.00  0.00    -0.291 OA
ENDROOT
BRANCH   1   3
ATOM      3  O8  ZIN AC000       3.095  -1.560   2.393  0.00  0.00    -0.301 OA
BRANCH   3   4
ATOM      4  C6  ZIN AC000       1.828  -2.211   2.288  0.00  0.00     0.280 C 
BRANCH   4   5
ATOM      5  O5  ZIN AC000       0.803  -1.229   1.981  0.00  0.00    -0.289 OA
BRANCH   5   6
ATOM      6  C3  ZIN AC000       0.408  -0.427   2.982  0.00  0.00     0.260 C 
ATOM      7  O4  ZIN AC000       0.970  -0.473   4.051  0.00  0.00    -0.265 OA
BRANCH   6   8
ATOM      8  C2  ZIN AC000      -0.737   0.530   2.773  0.00  0.00     0.107 C 
ATOM      9  C1  ZIN AC000      -0.983   1.320   4.061  0.00  0.00     0.015 C 
ENDBRANCH   6   8
ENDBRANCH   5   6
ENDBRANCH   4   5
BRANCH   4  10
ATOM     10  C40 ZIN AC000       1.882  -3.257   1.173  0.00  0.00     0.034 C 
ATOM     11  C41 ZIN AC000       3.047  -4.215   1.429  0.00  0.00     0.014 C 
ATOM     12  C42 ZIN AC000       0.570  -4.045   1.149  0.00  0.00     0.014 C 
ENDBRANCH   4  10
ENDBRANCH   3   4
ENDBRANCH   1   3
BRANCH   1  13
ATOM     13  C11 ZIN AC000       4.344  -3.015   4.441  0.00  0.00     0.102 C 
BRANCH  13  14
ATOM     14  C12 ZIN AC000       3.083  -3.797   4.811  0.00  0.00     0.010 C 
BRANCH  14  15
ATOM     15  C13 ZIN AC000       3.478  -5.114   5.482  0.00  0.00     0.005 C 
BRANCH  15  16
ATOM     16  C14 ZIN AC000       2.216  -5.896   5.853  0.00  0.00     0.038 C 
BRANCH  16  17
ATOM     17  C15 ZIN AC000       2.605  -7.193   6.514  0.00  0.00    -0.058 A 
ATOM     18  C20 ZIN AC000       2.763  -7.250   7.886  0.00  0.00     0.007 A 
ATOM     19  C19 ZIN AC000       3.116  -8.441   8.493  0.00  0.00     0.001 A 
ATOM     20  C18 ZIN AC000       3.319  -9.573   7.727  0.00  0.00     0.000 A 
ATOM     21  C17 ZIN AC000       3.165  -9.515   6.354  0.00  0.00     0.001 A 
ATOM     22  C16 ZIN AC000       2.808  -8.325   5.748  0.00  0.00     0.007 A 
ENDBRANCH  16  17
ENDBRANCH  15  16
ENDBRANCH  14  15
ENDBRANCH  13  14
ENDBRANCH   1  13
BRANCH   1  23
ATOM     23  C21 ZIN AC000       5.376  -0.378   3.522  0.00  0.00     0.204 C 
BRANCH  23  24
ATOM     24  C22 ZIN AC000       4.983   1.014   3.100  0.00  0.00     0.229 C 
ATOM     25  O23 ZIN AC000       4.629   1.823   3.932  0.00  0.00    -0.273 OA
ATOM     26  N24 ZIN AC000       5.024   1.362   1.798  0.00  0.00    -0.337 N 
ATOM     27  C35 ZIN AC000       5.432   0.485   0.691  0.00  0.00     0.188 C 
ATOM     28  C25 ZIN AC000       4.674   2.685   1.251  0.00  0.00     0.132 C 
ATOM     29  C34 ZIN AC000       5.346   1.317  -0.607  0.00  0.00     0.043 C 
ATOM     30  C26 ZIN AC000       5.446   2.776  -0.089  0.00  0.00     0.010 C 
BRANCH  27  31
ATOM     31  C37 ZIN AC000       6.845   0.004   0.898  0.00  0.00     0.196 C 
ATOM     32  O38 ZIN AC000       7.521   0.468   1.800  0.00  0.00    -0.646 OA
ATOM     33  O39 ZIN AC000       7.313  -0.849   0.163  0.00  0.00    -0.646 OA
ENDBRANCH  27  31
BRANCH  30  34
ATOM     34  C28 ZIN AC000       4.761   3.748  -1.052  0.00  0.00    -0.009 C 
ATOM     35  C33 ZIN AC000       5.530   3.784  -2.374  0.00  0.00     0.005 C 
ATOM     36  C32 ZIN AC000       4.845   4.756  -3.336  0.00  0.00     0.000 C 
ATOM     37  C31 ZIN AC000       4.827   6.156  -2.719  0.00  0.00     0.000 C 
ATOM     38  C30 ZIN AC000       4.058   6.120  -1.397  0.00  0.00     0.000 C 
ATOM     39  C29 ZIN AC000       4.742   5.148  -0.435  0.00  0.00     0.005 C 
ENDBRANCH  30  34
ENDBRANCH  23  24
ENDBRANCH   1  23
TORSDOF 15
