REMARK  3 active torsions:
REMARK  status: ('A' for Active; 'I' for Inactive)
REMARK    1  A    between atoms: O2_2  and  C3_3 
REMARK    2  A    between atoms: C5_5  and  O6_6 
REMARK    3  A    between atoms: C16_16  and  O17_17 
ROOT
ATOM      1  C3  <0> d           0.605  -0.606  -1.054  0.00  0.00     0.095 A 
ATOM      2  C4  <0> d           1.170   0.170  -2.058  0.00  0.00     0.076 A 
ATOM      3  C5  <0> d           1.787  -0.438  -3.136  0.00  0.00     0.087 A 
ATOM      4  C8  <0> d           1.838  -1.841  -3.210  0.00  0.00     0.082 A 
ATOM      5  C9  <0> d           2.415  -2.745  -4.209  0.00  0.00     0.207 A 
ATOM      6  O10 <0> d           2.995  -2.447  -5.233  0.00  0.00    -0.288 OA
ATOM      7  C11 <0> d           2.126  -4.131  -3.679  0.00  0.00     0.184 A 
ATOM      8  O12 <0> d           1.420  -3.945  -2.454  0.00  0.00    -0.322 OA
ATOM      9  C13 <0> d           1.264  -2.624  -2.194  0.00  0.00     0.112 A 
ATOM     10  C14 <0> d           0.656  -1.992  -1.118  0.00  0.00     0.101 A 
ATOM     11 Cl15 <0> d          -0.052  -2.941   0.152  0.00  0.00    -0.078 Cl
ATOM     12  C16 <0> d           1.282  -4.893  -4.662  0.00  0.00     0.092 C 
ATOM     13  C19 <0> d           1.365  -6.233  -4.756  0.00  0.00     0.086 C 
ATOM     14  C20 <0> d           2.239  -6.975  -3.948  0.00  0.00     0.152 C 
ATOM     15  O21 <0> d           2.286  -8.183  -4.065  0.00  0.00    -0.293 OA
ATOM     16  C22 <0> d           3.119  -6.290  -2.936  0.00  0.00     0.091 C 
ATOM     17  C23 <0> d           3.438  -4.873  -3.426  0.00  0.00     0.039 C 
ATOM     18  C25 <0> d           4.246  -4.949  -4.723  0.00  0.00     0.014 C 
ENDROOT
BRANCH  12  19
ATOM     19  O17 <0> d           0.431  -4.224  -5.463  0.00  0.00    -0.356 OA
ATOM     20  C18 <0> d          -0.357  -5.013  -6.392  0.00  0.00     0.209 C 
ENDBRANCH  12  19
BRANCH   3  21
ATOM     21  O6  <0> d           2.340   0.317  -4.118  0.00  0.00    -0.355 OA
ATOM     22  C7  <0> d           2.249   1.736  -3.975  0.00  0.00     0.210 C 
ENDBRANCH   3  21
BRANCH   1  23
ATOM     23  O2  <0> d           0.002  -0.004   0.002  0.00  0.00    -0.354 OA
ATOM     24  C1  <0> d          -0.017   1.425   0.010  0.00  0.00     0.210 C 
ENDBRANCH   1  23
TORSDOF 3
