REMARK  1 active torsions:
REMARK  status: ('A' for Active; 'I' for Inactive)
REMARK    1  A    between atoms: C2_2  and  C4_4 
ROOT
ATOM      1  C4  <0> d          -1.330   1.951   0.019  0.00  0.00     0.285 C 
ATOM      2  C6  <0> d          -2.016   1.817  -1.357  0.00  0.00     0.046 C 
ATOM      3  C7  <0> d          -2.649   3.218  -1.569  0.00  0.00     0.030 C 
ATOM      4  C8  <0> d          -1.588   4.142  -0.919  0.00  0.00     0.233 C 
ATOM      5  N9  <0> d          -1.099   3.387   0.259  0.00  0.00    -0.061 N 
ATOM      6  H10 <0> d          -1.601   3.682   1.083  0.00  0.00     0.278 HD
ATOM      7  H11 <0> d          -0.112   3.554   0.383  0.00  0.00     0.278 HD
ENDROOT
BRANCH   1   8
ATOM      8  C2  <0> d          -0.015   1.215   0.009  0.00  0.00     0.204 C 
ATOM      9  O1  <0> d           0.002  -0.004   0.002  0.00  0.00    -0.646 OA
ATOM     10  O3  <0> d           1.033   1.839   0.002  0.00  0.00    -0.646 OA
ENDBRANCH   1   8
TORSDOF 1
