REMARK  13 active torsions:
REMARK  status: ('A' for Active; 'I' for Inactive)
REMARK    1  A    between atoms: O2_2  and  C3_3 
REMARK    2  A    between atoms: C3_3  and  C5_5 
REMARK    3  A    between atoms: C5_5  and  C6_6 
REMARK    4  A    between atoms: C6_6  and  O7_7 
REMARK    5  A    between atoms: C6_6  and  C8_8 
REMARK    6  A    between atoms: C6_6  and  C15_15 
REMARK    7  A    between atoms: C8_8  and  C9_9 
REMARK    8  A    between atoms: C9_9  and  C10_10 
REMARK    9  A    between atoms: C10_10  and  C11_11 
REMARK   10  A    between atoms: C11_11  and  O14_14 
REMARK   11  A    between atoms: C15_15  and  O17_17 
REMARK   12  A    between atoms: O17_17  and  C18_18 
REMARK   13  A    between atoms: C20_19  and  O21_20 
ROOT
ATOM      1  C18 ZIN AC000       0.173  -6.463  -2.111  0.00  0.00     0.199 C 
ATOM      2  C20 ZIN AC000      -0.795  -6.798  -0.964  0.00  0.00     0.074 C 
ATOM      3  C23 ZIN AC000      -0.681  -8.092  -0.628  0.00  0.00     0.048 C 
ATOM      4  C24 ZIN AC000       0.305  -8.711  -1.580  0.00  0.00     0.158 C 
ATOM      5  C25 ZIN AC000      -0.533  -9.338  -2.707  0.00  0.00     0.046 C 
ATOM      6  C26 ZIN AC000      -0.844 -10.745  -2.104  0.00  0.00     0.030 C 
ATOM      7  C27 ZIN AC000       0.027 -10.813  -0.805  0.00  0.00     0.236 C 
ATOM      8  N28 ZIN AC000       1.119  -9.874  -1.179  0.00  0.00    -0.058 N 
ATOM      9  H29 ZIN AC000       1.631 -10.233  -1.970  0.00  0.00     0.281 HD
ATOM     10  C30 ZIN AC000       2.041  -9.459  -0.126  0.00  0.00     0.241 C 
ATOM     11  C31 ZIN AC000       3.377  -9.139  -0.767  0.00  0.00     0.067 C 
ATOM     12  C32 ZIN AC000       3.415  -8.541  -2.134  0.00  0.00    -0.047 A 
ATOM     13  C33 ZIN AC000       4.589  -8.756  -2.869  0.00  0.00     0.047 A 
ATOM     14  C34 ZIN AC000       4.670  -8.248  -4.152  0.00  0.00     0.105 A 
ATOM     15  C35 ZIN AC000       3.602  -7.534  -4.716  0.00  0.00     0.105 A 
ATOM     16  C36 ZIN AC000       2.444  -7.313  -3.990  0.00  0.00     0.048 A 
ATOM     17  C37 ZIN AC000       2.377  -7.813  -2.693  0.00  0.00    -0.039 A 
ATOM     18  C38 ZIN AC000       1.213  -7.550  -1.875  0.00  0.00     0.095 C 
ATOM     19  O40 ZIN AC000       3.938  -7.162  -5.971  0.00  0.00    -0.323 OA
ATOM     20  C41 ZIN AC000       5.372  -7.305  -6.043  0.00  0.00     0.352 C 
ATOM     21  O42 ZIN AC000       5.674  -8.314  -5.058  0.00  0.00    -0.323 OA
ENDROOT
BRANCH   1  22
ATOM     22  O17 ZIN AC000       0.744  -5.137  -1.954  0.00  0.00    -0.306 OA
BRANCH  22  23
ATOM     23  C15 ZIN AC000       0.146  -4.134  -2.615  0.00  0.00     0.294 C 
ATOM     24  O16 ZIN AC000      -0.823  -4.356  -3.303  0.00  0.00    -0.262 OA
BRANCH  23  25
ATOM     25  C6  ZIN AC000       0.682  -2.731  -2.501  0.00  0.00     0.154 C 
BRANCH  25  26
ATOM     26  C5  ZIN AC000       0.098  -2.062  -1.255  0.00  0.00     0.159 C 
BRANCH  26  27
ATOM     27  C3  ZIN AC000       0.684  -0.681  -1.105  0.00  0.00     0.261 C 
ATOM     28  O4  ZIN AC000       1.570  -0.317  -1.841  0.00  0.00    -0.265 OA
BRANCH  27  29
ATOM     29  O2  ZIN AC000       0.220   0.145  -0.154  0.00  0.00    -0.326 OA
ATOM     30  C1  ZIN AC000       0.746   1.498  -0.142  0.00  0.00     0.213 C 
ENDBRANCH  27  29
ENDBRANCH  26  27
ENDBRANCH  25  26
BRANCH  25  31
ATOM     31  O7  ZIN AC000       2.107  -2.772  -2.396  0.00  0.00    -0.379 OA
ATOM     32  H48 ZIN AC000       2.545  -3.184  -3.152  0.00  0.00     0.211 HD
ENDBRANCH  25  31
BRANCH  25  33
ATOM     33  C8  ZIN AC000       0.286  -1.930  -3.743  0.00  0.00     0.049 C 
BRANCH  33  34
ATOM     34  C9  ZIN AC000       0.876  -2.595  -4.988  0.00  0.00     0.006 C 
BRANCH  34  35
ATOM     35  C10 ZIN AC000       0.552  -1.748  -6.220  0.00  0.00     0.037 C 
BRANCH  35  36
ATOM     36  C11 ZIN AC000       1.027  -2.477  -7.479  0.00  0.00     0.051 C 
ATOM     37  C12 ZIN AC000       0.666  -1.649  -8.714  0.00  0.00     0.045 C 
ATOM     38  C13 ZIN AC000       2.544  -2.665  -7.417  0.00  0.00     0.045 C 
BRANCH  36  39
ATOM     39  O14 ZIN AC000       0.392  -3.754  -7.559  0.00  0.00    -0.391 OA
ATOM     40  H61 ZIN AC000      -0.574  -3.711  -7.602  0.00  0.00     0.210 HD
ENDBRANCH  36  39
ENDBRANCH  35  36
ENDBRANCH  34  35
ENDBRANCH  33  34
ENDBRANCH  25  33
ENDBRANCH  23  25
ENDBRANCH  22  23
ENDBRANCH   1  22
BRANCH   2  41
ATOM     41  O21 ZIN AC000      -1.641  -5.914  -0.378  0.00  0.00    -0.358 OA
ATOM     42  C22 ZIN AC000      -2.469  -6.410   0.676  0.00  0.00     0.209 C 
ENDBRANCH   2  41
TORSDOF 13
