REMARK  10 active torsions:
REMARK  status: ('A' for Active; 'I' for Inactive)
REMARK    1  A    between atoms: C7_7  and  N8_8 
REMARK    2  A    between atoms: N8_8  and  C9_9 
REMARK    3  A    between atoms: C12_12  and  O13_13 
REMARK    4  A    between atoms: O13_13  and  C14_14 
REMARK    5  A    between atoms: C14_14  and  C15_15 
REMARK    6  A    between atoms: C15_15  and  O16_16 
REMARK    7  A    between atoms: C18_18  and  O19_19 
REMARK    8  A    between atoms: O19_19  and  C20_20 
REMARK    9  A    between atoms: C20_20  and  C21_21 
REMARK   10  A    between atoms: C21_21  and  O22_22 
ROOT
ATOM      1  C1  RES d   1      -3.188   4.112  -2.068  0.00  0.00     0.018 C 
ATOM      2  C2  RES d   1      -2.260   3.729  -1.458  0.00  0.00    -0.078 C 
ATOM      3  C3  RES d   1      -1.129   3.263  -0.714  0.00  0.00     0.019 A 
ATOM      4  C4  RES d   1      -1.216   2.082   0.024  0.00  0.00     0.021 A 
ATOM      5  C5  RES d   1      -0.124   1.634   0.741  0.00  0.00     0.004 A 
ATOM      6  C6  RES d   1       1.056   2.351   0.730  0.00  0.00     0.029 A 
ATOM      7  C7  RES d   1       1.153   3.529  -0.002  0.00  0.00     0.035 A 
ATOM      8  C29 RES d   1       0.064   3.984  -0.729  0.00  0.00     0.050 A 
ENDROOT
BRANCH   7   9
ATOM      9  N8  RES d   1       2.349   4.252  -0.009  0.00  0.00    -0.340 N 
ATOM     10  H34 RES d   1       3.198   3.786   0.054  0.00  0.00     0.167 HD
BRANCH   9  11
ATOM     11  C9  RES d   1       2.324   5.629  -0.105  0.00  0.00     0.142 A 
ATOM     12  N28 RES d   1       1.174   6.292  -0.086  0.00  0.00    -0.224 NA
ATOM     13  C27 RES d   1       1.135   7.612  -0.173  0.00  0.00     0.236 A 
ATOM     14  N26 RES d   1       2.213   8.350  -0.292  0.00  0.00    -0.241 NA
ATOM     15  C25 RES d   1       3.428   7.781  -0.326  0.00  0.00     0.075 A 
ATOM     16  C10 RES d   1       3.522   6.371  -0.232  0.00  0.00     0.042 A 
ATOM     17  C24 RES d   1       4.597   8.542  -0.454  0.00  0.00     0.072 A 
ATOM     18  C11 RES d   1       4.777   5.751  -0.265  0.00  0.00     0.057 A 
ATOM     19  C12 RES d   1       5.904   6.512  -0.390  0.00  0.00     0.103 A 
ATOM     20  C18 RES d   1       5.819   7.909  -0.484  0.00  0.00     0.104 A 
BRANCH  19  21
ATOM     21  O13 RES d   1       7.122   5.909  -0.423  0.00  0.00    -0.346 OA
BRANCH  21  22
ATOM     22  C14 RES d   1       7.144   4.484  -0.323  0.00  0.00     0.201 C 
BRANCH  22  23
ATOM     23  C15 RES d   1       8.591   3.990  -0.378  0.00  0.00     0.193 C 
BRANCH  23  24
ATOM     24  O16 RES d   1       9.298   4.460   0.771  0.00  0.00    -0.394 OA
ATOM     25  C17 RES d   1      10.667   4.053   0.817  0.00  0.00     0.201 C 
ENDBRANCH  23  24
ENDBRANCH  22  23
ENDBRANCH  21  22
ENDBRANCH  19  21
BRANCH  20  26
ATOM     26  O19 RES d   1       6.954   8.644  -0.607  0.00  0.00    -0.346 OA
BRANCH  26  27
ATOM     27  C20 RES d   1       6.802  10.062  -0.698  0.00  0.00     0.201 C 
BRANCH  27  28
ATOM     28  C21 RES d   1       8.179  10.715  -0.830  0.00  0.00     0.193 C 
BRANCH  28  29
ATOM     29  O22 RES d   1       8.778  10.319  -2.065  0.00  0.00    -0.394 OA
ATOM     30  C23 RES d   1      10.075  10.877  -2.288  0.00  0.00     0.201 C 
ENDBRANCH  28  29
ENDBRANCH  27  28
ENDBRANCH  26  27
ENDBRANCH  20  26
ENDBRANCH   9  11
ENDBRANCH   7   9
TORSDOF 10
