REMARK  7 active torsions:
REMARK  status: ('A' for Active; 'I' for Inactive)
REMARK    1  A    between atoms: C2_2  and  O4_4 
REMARK    2  A    between atoms: O4_4  and  C5_5 
REMARK    3  A    between atoms: C5_5  and  C7_7 
REMARK    4  A    between atoms: C7_7  and  O10_10 
REMARK    5  A    between atoms: O10_10  and  C11_11 
REMARK    6  A    between atoms: C14_14  and  C15_15 
REMARK    7  A    between atoms: C15_15  and  C17_17 
ROOT
ATOM      1  C11 <0> d          -4.560  -4.112  -0.604  0.00  0.00     0.070 A 
ATOM      2  C12 <0> d          -5.706  -3.343  -0.432  0.00  0.00     0.038 A 
ATOM      3  C13 <0> d          -6.939  -3.861  -0.760  0.00  0.00     0.018 A 
ATOM      4  C14 <0> d          -7.037  -5.161  -1.266  0.00  0.00     0.015 A 
ATOM      5  C24 <0> d          -5.882  -5.930  -1.436  0.00  0.00     0.018 A 
ATOM      6  C25 <0> d          -4.652  -5.403  -1.111  0.00  0.00     0.038 A 
ENDROOT
BRANCH   1   7
ATOM      7  O10 <0> d          -3.346  -3.598  -0.280  0.00  0.00    -0.331 OA
BRANCH   7   8
ATOM      8  C7  <0> d          -3.332  -2.316   0.351  0.00  0.00     0.148 C 
ATOM      9  C8  <0> d          -1.887  -1.906   0.642  0.00  0.00     0.057 C 
ATOM     10  C9  <0> d          -4.116  -2.385   1.664  0.00  0.00     0.057 C 
BRANCH   8  11
ATOM     11  C5  <0> d          -3.969  -1.299  -0.561  0.00  0.00     0.294 C 
ATOM     12  O6  <0> d          -4.391  -1.638  -1.641  0.00  0.00    -0.262 OA
BRANCH  11  13
ATOM     13  O4  <0> d          -4.067  -0.018  -0.174  0.00  0.00    -0.314 OA
BRANCH  13  14
ATOM     14  C2  <0> d          -4.692   0.906  -1.104  0.00  0.00     0.123 C 
ATOM     15  C1  <0> d          -5.383   2.026  -0.324  0.00  0.00     0.040 C 
ATOM     16  C3  <0> d          -3.624   1.507  -2.021  0.00  0.00     0.040 C 
ENDBRANCH  13  14
ENDBRANCH  11  13
ENDBRANCH   8  11
ENDBRANCH   7   8
ENDBRANCH   1   7
BRANCH   4  17
ATOM     17  C15 <0> d          -8.356  -5.719  -1.619  0.00  0.00     0.192 C 
ATOM     18  O16 <0> d          -9.284  -4.975  -1.870  0.00  0.00    -0.287 OA
BRANCH  17  19
ATOM     19  C17 <0> d          -8.550  -7.183  -1.667  0.00  0.00     0.015 A 
ATOM     20  C23 <0> d          -9.588  -7.729  -2.426  0.00  0.00     0.017 A 
ATOM     21  C22 <0> d          -9.760  -9.096  -2.470  0.00  0.00     0.025 A 
ATOM     22  C20 <0> d          -8.913  -9.927  -1.756  0.00  0.00     0.034 A 
ATOM     23  C19 <0> d          -7.885  -9.392  -0.996  0.00  0.00     0.025 A 
ATOM     24 Cl21 <0> d          -9.140 -11.648  -1.812  0.00  0.00    -0.084 Cl
ATOM     25  C18 <0> d          -7.699  -8.027  -0.948  0.00  0.00     0.017 A 
ENDBRANCH  17  19
ENDBRANCH   4  17
TORSDOF 7
