REMARK  5 active torsions:
REMARK  status: ('A' for Active; 'I' for Inactive)
REMARK    1  A    between atoms: C11_8  and  O12_9 
REMARK    2  A    between atoms: C11_8  and  C13_10 
REMARK    3  A    between atoms: C13_10  and  C15_12 
REMARK    4  A    between atoms: C15_12  and  O16_13 
REMARK    5  A    between atoms: C20_17  and  O22_18 
ROOT
ATOM      1  C1  ZIN AC000      -0.129   0.809  -2.630  0.00  0.00     0.015 C 
ATOM      2  C2  ZIN AC000      -0.014  -0.529  -1.897  0.00  0.00     0.012 C 
ATOM      3  C4  ZIN AC000       1.006  -1.423  -2.609  0.00  0.00     0.014 C 
ATOM      4  C5  ZIN AC000       1.215  -2.707  -1.804  0.00  0.00    -0.001 C 
ATOM      5  C7  ZIN AC000       2.173  -3.627  -2.539  0.00  0.00     0.002 C 
ATOM      6  C9  ZIN AC000       1.695  -4.134  -3.904  0.00  0.00     0.009 C 
ATOM      7  C10 ZIN AC000       2.530  -5.428  -4.106  0.00  0.00     0.047 C 
ATOM      8  C11 ZIN AC000       2.935  -5.912  -2.692  0.00  0.00     0.128 C 
ATOM      9  C17 ZIN AC000       2.274  -4.938  -1.714  0.00  0.00     0.001 C 
ATOM     10  C18 ZIN AC000       0.862  -5.420  -1.376  0.00  0.00     0.019 C 
ATOM     11  C19 ZIN AC000       3.037  -4.638  -0.438  0.00  0.00     0.045 C 
ATOM     12  C20 ZIN AC000       2.191  -3.645   0.375  0.00  0.00     0.124 C 
ATOM     13  C23 ZIN AC000       1.830  -2.364  -0.438  0.00  0.00     0.035 C 
ATOM     14  C25 ZIN AC000       0.880  -1.491   0.388  0.00  0.00     0.004 A 
ATOM     15  C26 ZIN AC000      -0.379  -2.313   0.671  0.00  0.00     0.025 C 
ATOM     16  C27 ZIN AC000       1.486  -1.150   1.705  0.00  0.00    -0.009 A 
ATOM     17  C28 ZIN AC000       1.600   0.084   2.171  0.00  0.00     0.052 A 
ATOM     18  C29 ZIN AC000       1.119   1.219   1.367  0.00  0.00     0.172 A 
ATOM     19  O30 ZIN AC000       1.174   2.355   1.798  0.00  0.00    -0.289 OA
ATOM     20  C31 ZIN AC000       0.571   0.949   0.029  0.00  0.00     0.059 A 
ATOM     21  C32 ZIN AC000       0.472  -0.295  -0.478  0.00  0.00    -0.060 A 
ENDROOT
BRANCH   8  22
ATOM     22  O12 ZIN AC000       4.354  -5.853  -2.536  0.00  0.00    -0.381 OA
ATOM     23  H42 ZIN AC000       4.841  -6.417  -3.153  0.00  0.00     0.211 HD
ENDBRANCH   8  22
BRANCH   8  24
ATOM     24  C13 ZIN AC000       2.443  -7.317  -2.460  0.00  0.00     0.184 C 
ATOM     25  O14 ZIN AC000       1.459  -7.715  -3.036  0.00  0.00    -0.292 OA
BRANCH  24  26
ATOM     26  C15 ZIN AC000       3.179  -8.226  -1.509  0.00  0.00     0.245 C 
BRANCH  26  27
ATOM     27  O16 ZIN AC000       2.523  -9.495  -1.460  0.00  0.00    -0.393 OA
ATOM     28  H45 ZIN AC000       2.944 -10.132  -0.866  0.00  0.00     0.209 HD
ENDBRANCH  26  27
ENDBRANCH  24  26
ENDBRANCH   8  24
BRANCH  12  29
ATOM     29  O22 ZIN AC000       0.954  -4.268   0.729  0.00  0.00    -0.395 OA
ATOM     30  H51 ZIN AC000       1.055  -5.067   1.263  0.00  0.00     0.210 HD
ENDBRANCH  12  29
TORSDOF 5
