REMARK  1 active torsions:
REMARK  status: ('A' for Active; 'I' for Inactive)
REMARK    1  A    between atoms: C8_8  and  C9_9 
ROOT
ATOM      1  C1  ZIN AC000       0.167   1.670   0.329  0.00  0.00     0.093 C 
ATOM      2  C2  ZIN AC000       0.111   0.170   0.195  0.00  0.00     0.131 A 
ATOM      3  N3  ZIN AC000       0.075  -0.512  -0.920  0.00  0.00    -0.135 NA
ATOM      4  N4  ZIN AC000       0.016  -1.772  -0.662  0.00  0.00    -0.133 NA
ATOM      5  C5  ZIN AC000      -0.001  -1.955   0.626  0.00  0.00     0.154 A 
ATOM      6  C6  ZIN AC000      -0.130  -3.262   1.367  0.00  0.00     0.230 C 
ATOM      7  N7  ZIN AC000      -1.342  -3.192   2.190  0.00  0.00    -0.280 NA
ATOM      8  C8  ZIN AC000      -1.484  -2.312   3.119  0.00  0.00     0.076 C 
ATOM      9  C16 ZIN AC000      -0.546  -1.253   3.509  0.00  0.00     0.022 A 
ATOM     10  C17 ZIN AC000      -0.360  -1.007   4.877  0.00  0.00     0.040 A 
ATOM     11  C18 ZIN AC000       0.485  -0.004   5.299  0.00  0.00     0.035 A 
ATOM     12 Cl19 ZIN AC000       0.707   0.283   6.996  0.00  0.00    -0.084 Cl
ATOM     13  C20 ZIN AC000       1.159   0.775   4.372  0.00  0.00     0.026 A 
ATOM     14  C21 ZIN AC000       0.996   0.538   3.023  0.00  0.00     0.033 A 
ATOM     15  C22 ZIN AC000       0.159  -0.482   2.582  0.00  0.00     0.055 A 
ATOM     16  N23 ZIN AC000       0.093  -0.734   1.211  0.00  0.00    -0.282 N 
ENDROOT
BRANCH   8  17
ATOM     17  C9  ZIN AC000      -2.747  -2.378   3.890  0.00  0.00     0.015 A 
ATOM     18  C14 ZIN AC000      -3.670  -1.333   3.814  0.00  0.00     0.046 A 
ATOM     19  C13 ZIN AC000      -4.848  -1.403   4.531  0.00  0.00     0.025 A 
ATOM     20 Cl15 ZIN AC000      -3.343   0.045   2.810  0.00  0.00    -0.083 Cl
ATOM     21  C12 ZIN AC000      -5.109  -2.501   5.331  0.00  0.00     0.002 A 
ATOM     22  C11 ZIN AC000      -4.196  -3.537   5.415  0.00  0.00     0.001 A 
ATOM     23  C10 ZIN AC000      -3.017  -3.482   4.699  0.00  0.00     0.015 A 
ENDBRANCH   8  17
TORSDOF 1
