REMARK  7 active torsions:
REMARK  status: ('A' for Active; 'I' for Inactive)
REMARK    1  A    between atoms: C2_2  and  C3_3 
REMARK    2  A    between atoms: C3_3  and  S4_4 
REMARK    3  A    between atoms: S4_4  and  N7_7 
REMARK    4  A    between atoms: N7_7  and  C8_8 
REMARK    5  A    between atoms: C13_13  and  C14_14 
REMARK    6  A    between atoms: C14_14  and  C16_16 
REMARK    7  A    between atoms: C22_22  and  C23_23 
ROOT
ATOM      1  C16 ZIN AC000       3.531  -7.561   6.005  0.00  0.00     0.044 A 
ATOM      2  C17 ZIN AC000       3.118  -8.641   5.280  0.00  0.00     0.106 A 
ATOM      3  N18 ZIN AC000       3.399  -9.781   5.956  0.00  0.00    -0.349 N 
ATOM      4  C19 ZIN AC000       4.010  -9.495   7.157  0.00  0.00     0.138 A 
ATOM      5  N20 ZIN AC000       4.463 -10.260   8.142  0.00  0.00    -0.242 NA
ATOM      6  C21 ZIN AC000       5.023  -9.749   9.216  0.00  0.00     0.131 A 
ATOM      7  C22 ZIN AC000       5.168  -8.369   9.374  0.00  0.00    -0.007 A 
ATOM      8  C30 ZIN AC000       4.708  -7.520   8.367  0.00  0.00     0.030 A 
ATOM      9  C31 ZIN AC000       4.127  -8.096   7.242  0.00  0.00     0.026 A 
ATOM     10  H44 ZIN AC000       3.198 -10.676   5.639  0.00  0.00     0.167 HD
ENDROOT
BRANCH   1  11
ATOM     11  C14 ZIN AC000       3.411  -6.148   5.625  0.00  0.00     0.200 C 
ATOM     12  O15 ZIN AC000       3.907  -5.285   6.326  0.00  0.00    -0.286 OA
BRANCH  11  13
ATOM     13  C13 ZIN AC000       2.689  -5.773   4.394  0.00  0.00     0.094 A 
ATOM     14  C11 ZIN AC000       3.392  -5.575   3.199  0.00  0.00     0.133 A 
ATOM     15  C10 ZIN AC000       2.712  -5.224   2.049  0.00  0.00     0.046 A 
ATOM     16  F12 ZIN AC000       4.734  -5.727   3.171  0.00  0.00    -0.205 F 
ATOM     17  C9  ZIN AC000       1.338  -5.067   2.072  0.00  0.00     0.039 A 
ATOM     18  C8  ZIN AC000       0.630  -5.261   3.251  0.00  0.00     0.109 A 
ATOM     19  C32 ZIN AC000       1.301  -5.608   4.416  0.00  0.00     0.163 A 
ATOM     20  F33 ZIN AC000       0.614  -5.797   5.564  0.00  0.00    -0.202 F 
BRANCH  18  21
ATOM     21  N7  ZIN AC000      -0.760  -5.100   3.266  0.00  0.00    -0.162 NA
BRANCH  21  22
ATOM     22  S4  ZIN AC000      -1.562  -4.686   1.877  0.00  0.00     0.251 S 
ATOM     23  O5  ZIN AC000      -1.347  -5.788   1.007  0.00  0.00    -0.204 OA
ATOM     24  O6  ZIN AC000      -1.064  -3.393   1.558  0.00  0.00    -0.204 OA
BRANCH  22  25
ATOM     25  C3  ZIN AC000      -3.305  -4.593   2.370  0.00  0.00     0.165 C 
BRANCH  25  26
ATOM     26  C2  ZIN AC000      -4.158  -4.213   1.159  0.00  0.00     0.012 C 
ATOM     27  C1  ZIN AC000      -5.628  -4.135   1.575  0.00  0.00     0.006 C 
ENDBRANCH  25  26
ENDBRANCH  22  25
ENDBRANCH  21  22
ENDBRANCH  18  21
ENDBRANCH  11  13
ENDBRANCH   1  11
BRANCH   7  28
ATOM     28  C23 ZIN AC000       5.802  -7.814  10.596  0.00  0.00    -0.024 A 
ATOM     29  C29 ZIN AC000       6.259  -8.669  11.596  0.00  0.00     0.014 A 
ATOM     30  C28 ZIN AC000       6.852  -8.149  12.728  0.00  0.00     0.024 A 
ATOM     31  C26 ZIN AC000       6.984  -6.778  12.875  0.00  0.00     0.034 A 
ATOM     32  C25 ZIN AC000       6.527  -5.924  11.886  0.00  0.00     0.024 A 
ATOM     33 Cl27 ZIN AC000       7.726  -6.129  14.304  0.00  0.00    -0.084 Cl
ATOM     34  C24 ZIN AC000       5.937  -6.436  10.748  0.00  0.00     0.014 A 
ENDBRANCH   7  28
TORSDOF 7
