REMARK  3 active torsions:
REMARK  status: ('A' for Active; 'I' for Inactive)
REMARK    1  A    between atoms: C2_2  and  C3_3 
REMARK    2  A    between atoms: C5_5  and  C6_6 
REMARK    3  A    between atoms: C6_6  and  N7_7 
ROOT
ATOM      1  C3  <0> d           0.731  -0.503   1.223  0.00  0.00     0.034 A 
ATOM      2  C4  <0> d           0.107  -1.397   2.070  0.00  0.00     0.041 A 
ATOM      3  C5  <0> d           0.795  -1.854   3.200  0.00  0.00     0.005 A 
ATOM      4  C9  <0> d           2.092  -1.379   3.420  0.00  0.00     0.034 A 
ATOM      5  C10 <0> d           2.639  -0.485   2.520  0.00  0.00     0.118 A 
ATOM      6  N11 <0> d           1.958  -0.084   1.464  0.00  0.00    -0.266 NA
ENDROOT
BRANCH   3   7
ATOM      7  C6  <0> d           0.168  -2.812   4.136  0.00  0.00     0.104 C 
ATOM      8  S8  <0> d          -0.885  -4.024   3.542  0.00  0.00    -0.060 SA
BRANCH   7   9
ATOM      9  N7  <0> d           0.426  -2.731   5.456  0.00  0.00    -0.390 N 
ATOM     10  H18 <0> d           1.022  -2.044   5.793  0.00  0.00     0.157 HD
ATOM     11  H19 <0> d           0.015  -3.359   6.070  0.00  0.00     0.157 HD
ENDBRANCH   7   9
ENDBRANCH   3   7
BRANCH   1  12
ATOM     12  C2  <0> d           0.002  -0.004   0.002  0.00  0.00     0.055 C 
ATOM     13  C1  <0> d          -0.019   1.526   0.010  0.00  0.00     0.011 C 
ENDBRANCH   1  12
TORSDOF 3
