REMARK  7 active torsions:
REMARK  status: ('A' for Active; 'I' for Inactive)
REMARK    1  A    between atoms: N1_1  and  C2_2 
REMARK    2  A    between atoms: C2_2  and  C4_3 
REMARK    3  A    between atoms: C2_2  and  C7_6 
REMARK    4  A    between atoms: C7_6  and  O9_7 
REMARK    5  A    between atoms: C7_6  and  C10_8 
REMARK    6  A    between atoms: C13_11  and  O14_12 
REMARK    7  A    between atoms: C15_13  and  O16_14 
ROOT
ATOM      1  C10 ZIN AC000      -2.089   0.051   1.334  0.00  0.00    -0.024 A 
ATOM      2  C11 ZIN AC000      -2.699   1.289   1.262  0.00  0.00     0.013 A 
ATOM      3  C12 ZIN AC000      -3.305   1.831   2.381  0.00  0.00     0.040 A 
ATOM      4  C13 ZIN AC000      -3.302   1.132   3.577  0.00  0.00     0.098 A 
ATOM      5  C15 ZIN AC000      -2.688  -0.115   3.649  0.00  0.00     0.099 A 
ATOM      6  C17 ZIN AC000      -2.087  -0.654   2.524  0.00  0.00     0.049 A 
ENDROOT
BRANCH   1   7
ATOM      7  C7  ZIN AC000      -1.429  -0.534   0.112  0.00  0.00     0.195 C 
BRANCH   7   8
ATOM      8  C2  ZIN AC000       0.002  -0.004   0.002  0.00  0.00     0.350 C 
BRANCH   8   9
ATOM      9  N1  ZIN AC000      -0.018   1.465   0.010  0.00  0.00     0.096 N 
ATOM     10  H18 ZIN AC000       0.919   1.839   0.003  0.00  0.00     0.314 HD
ATOM     11  H19 ZIN AC000      -0.556   1.823  -0.764  0.00  0.00     0.314 HD
ENDBRANCH   8   9
BRANCH   8  12
ATOM     12  C4  ZIN AC000       0.621  -0.491  -1.283  0.00  0.00     0.210 C 
ATOM     13  O5  ZIN AC000       1.009   0.311  -2.115  0.00  0.00    -0.646 OA
ATOM     14  O6  ZIN AC000       0.733  -1.687  -1.491  0.00  0.00    -0.646 OA
ENDBRANCH   8  12
ENDBRANCH   7   8
BRANCH   7  15
ATOM     15  O9  ZIN AC000      -2.167  -0.160  -1.053  0.00  0.00    -0.388 OA
ATOM     16  H20 ZIN AC000      -2.226   0.796  -1.190  0.00  0.00     0.210 HD
ENDBRANCH   7  15
ENDBRANCH   1   7
BRANCH   5  17
ATOM     17  O16 ZIN AC000      -2.683  -0.805   4.821  0.00  0.00    -0.358 OA
ATOM     18  H24 ZIN AC000      -3.442  -1.393   4.935  0.00  0.00     0.217 HD
ENDBRANCH   5  17
BRANCH   4  19
ATOM     19  O14 ZIN AC000      -3.898   1.663   4.678  0.00  0.00    -0.358 OA
ATOM     20  H23 ZIN AC000      -4.832   1.428   4.771  0.00  0.00     0.217 HD
ENDBRANCH   4  19
TORSDOF 7
