REMARK  8 active torsions:
REMARK  status: ('A' for Active; 'I' for Inactive)
REMARK    1  A    between atoms: C2_2  and  N3_3 
REMARK    2  A    between atoms: N3_3  and  C4_4 
REMARK    3  A    between atoms: N3_3  and  C6_6 
REMARK    4  A    between atoms: C6_6  and  C7_7 
REMARK    5  A    between atoms: C7_7  and  O8_8 
REMARK    6  A    between atoms: O8_8  and  C9_9 
REMARK    7  A    between atoms: C9_9  and  C11_11 
REMARK    8  A    between atoms: C11_11  and  C12_12 
ROOT
ATOM      1  C11 ZIN AC000      -5.322  -2.687  -2.316  0.00  0.00     0.051 C 
ATOM      2  C18 ZIN AC000      -5.144  -1.309  -2.957  0.00  0.00     0.020 C 
ATOM      3  C19 ZIN AC000      -3.651  -1.003  -3.100  0.00  0.00     0.001 C 
ATOM      4  C20 ZIN AC000      -2.995  -2.066  -3.984  0.00  0.00     0.000 C 
ATOM      5  C21 ZIN AC000      -3.174  -3.443  -3.342  0.00  0.00     0.001 C 
ATOM      6  C22 ZIN AC000      -4.666  -3.749  -3.199  0.00  0.00     0.020 C 
ENDROOT
BRANCH   1   7
ATOM      7  C9  ZIN AC000      -4.675  -2.695  -0.955  0.00  0.00     0.268 C 
ATOM      8  O10 ZIN AC000      -5.343  -2.901   0.031  0.00  0.00    -0.264 OA
BRANCH   7   9
ATOM      9  O8  ZIN AC000      -3.356  -2.474  -0.838  0.00  0.00    -0.319 OA
BRANCH   9  10
ATOM     10  C7  ZIN AC000      -2.781  -2.608   0.489  0.00  0.00     0.209 C 
BRANCH  10  11
ATOM     11  C6  ZIN AC000      -1.305  -2.207   0.447  0.00  0.00     0.299 C 
BRANCH  11  12
ATOM     12  N3  ZIN AC000      -1.193  -0.785   0.097  0.00  0.00     0.089 N 
BRANCH  12  13
ATOM     13  C2  ZIN AC000      -1.537   0.068   1.242  0.00  0.00     0.268 C 
ATOM     14  C1  ZIN AC000      -1.653   1.522   0.779  0.00  0.00     0.037 C 
ENDBRANCH  12  13
BRANCH  12  15
ATOM     15  C4  ZIN AC000       0.150  -0.471  -0.409  0.00  0.00     0.268 C 
ATOM     16  C5  ZIN AC000       0.319  -1.064  -1.809  0.00  0.00     0.037 C 
ENDBRANCH  12  15
ENDBRANCH  11  12
ENDBRANCH  10  11
ENDBRANCH   9  10
ENDBRANCH   7   9
ENDBRANCH   1   7
BRANCH   1  17
ATOM     17  C12 ZIN AC000      -6.815  -2.993  -2.172  0.00  0.00     0.004 C 
ATOM     18  C17 ZIN AC000      -7.471  -1.930  -1.289  0.00  0.00     0.006 C 
ATOM     19  C16 ZIN AC000      -8.963  -2.236  -1.145  0.00  0.00     0.000 C 
ATOM     20  C15 ZIN AC000      -9.142  -3.614  -0.504  0.00  0.00     0.000 C 
ATOM     21  C14 ZIN AC000      -8.486  -4.676  -1.388  0.00  0.00     0.000 C 
ATOM     22  C13 ZIN AC000      -6.993  -4.370  -1.531  0.00  0.00     0.006 C 
ENDBRANCH   1  17
TORSDOF 8
