REMARK  5 active torsions:
REMARK  status: ('A' for Active; 'I' for Inactive)
REMARK    1  A    between atoms: C5_5  and  N6_6 
REMARK    2  A    between atoms: N6_6  and  C7_7 
REMARK    3  A    between atoms: N6_6  and  C14_14 
REMARK    4  A    between atoms: C7_7  and  C8_8 
REMARK    5  A    between atoms: C18_18  and  O19_19 
ROOT
ATOM      1  N6  ZIN AC000       0.060  -4.168  -0.021  0.00  0.00    -0.340 N 
ENDROOT
BRANCH   1   2
ATOM      2  C5  ZIN AC000       0.693  -2.923   0.019  0.00  0.00     0.035 A 
ATOM      3  C4  ZIN AC000       0.783  -2.226   1.218  0.00  0.00     0.030 A 
ATOM      4  C3  ZIN AC000       1.409  -0.996   1.254  0.00  0.00     0.009 A 
ATOM      5  C2  ZIN AC000       1.946  -0.457   0.099  0.00  0.00    -0.062 A 
ATOM      6  C1  ZIN AC000       2.628   0.886   0.142  0.00  0.00     0.048 C 
ATOM      7  C22 ZIN AC000       1.854  -1.146  -1.097  0.00  0.00     0.009 A 
ATOM      8  C21 ZIN AC000       1.234  -2.379  -1.139  0.00  0.00     0.030 A 
ENDBRANCH   1   2
BRANCH   1   9
ATOM      9  C7  ZIN AC000      -0.497  -4.746   1.204  0.00  0.00     0.205 C 
BRANCH   9  10
ATOM     10  C8  ZIN AC000      -1.930  -4.305   1.361  0.00  0.00     0.091 A 
ATOM     11  N13 ZIN AC000      -2.935  -4.985   0.863  0.00  0.00    -0.377 N 
ATOM     12  C12 ZIN AC000      -4.195  -4.298   1.188  0.00  0.00     0.140 A 
ATOM     13  H34 ZIN AC000      -2.860  -5.813   0.364  0.00  0.00     0.160 HD
ATOM     14  C11 ZIN AC000      -3.727  -3.058   1.978  0.00  0.00     0.140 A 
ATOM     15  N9  ZIN AC000      -2.263  -3.208   2.001  0.00  0.00    -0.377 N 
ATOM     16  H10 ZIN AC000      -1.642  -2.594   2.423  0.00  0.00     0.160 HD
ENDBRANCH   9  10
ENDBRANCH   1   9
BRANCH   1  17
ATOM     17  C14 ZIN AC000      -0.041  -4.861  -1.230  0.00  0.00     0.037 A 
ATOM     18  C20 ZIN AC000      -1.112  -4.622  -2.081  0.00  0.00     0.066 A 
ATOM     19  C18 ZIN AC000      -1.205  -5.308  -3.281  0.00  0.00     0.067 A 
ATOM     20  C17 ZIN AC000      -0.235  -6.239  -3.625  0.00  0.00     0.036 A 
ATOM     21  C16 ZIN AC000       0.827  -6.480  -2.775  0.00  0.00     0.005 A 
ATOM     22  C15 ZIN AC000       0.927  -5.795  -1.579  0.00  0.00     0.030 A 
BRANCH  19  23
ATOM     23  O19 ZIN AC000      -2.249  -5.072  -4.119  0.00  0.00    -0.361 OA
ATOM     24  H38 ZIN AC000      -3.017  -5.637  -3.959  0.00  0.00     0.217 HD
ENDBRANCH  19  23
ENDBRANCH   1  17
TORSDOF 5
