REMARK  1 active torsions:
REMARK  status: ('A' for Active; 'I' for Inactive)
REMARK    1  A    between atoms: O2_2  and  C3_3 
ROOT
ATOM      1  C3  ZIN AC000       0.606  -0.608  -1.056  0.00  0.00     0.102 A 
ATOM      2  C4  ZIN AC000       1.185   0.134  -2.084  0.00  0.00     0.040 A 
ATOM      3  C5  ZIN AC000       1.796  -0.441  -3.186  0.00  0.00     0.011 A 
ATOM      4  C6  ZIN AC000       1.869  -1.818  -3.303  0.00  0.00    -0.046 A 
ATOM      5  C7  ZIN AC000       2.400  -2.549  -4.492  0.00  0.00     0.075 C 
ATOM      6  C8  ZIN AC000       2.365  -4.061  -4.343  0.00  0.00     0.232 C 
ATOM      7  C10 ZIN AC000       1.198  -4.586  -3.500  0.00  0.00     0.036 C 
ATOM      8  C12 ZIN AC000      -0.129  -4.124  -4.101  0.00  0.00     0.015 C 
ATOM      9  C13 ZIN AC000      -1.273  -4.690  -3.259  0.00  0.00     0.081 C 
ATOM     10  C14 ZIN AC000      -1.123  -4.259  -1.831  0.00  0.00     0.157 C 
ATOM     11  O15 ZIN AC000      -2.112  -3.930  -1.221  0.00  0.00    -0.295 OA
ATOM     12  C16 ZIN AC000       0.201  -4.217  -1.124  0.00  0.00     0.212 C 
ATOM     13  O18 ZIN AC000       0.244  -2.977  -0.356  0.00  0.00    -0.334 OA
ATOM     14  C19 ZIN AC000       0.679  -2.002  -1.160  0.00  0.00     0.111 A 
ATOM     15  C20 ZIN AC000       1.342  -2.536  -2.254  0.00  0.00    -0.003 A 
ATOM     16  C21 ZIN AC000       1.365  -4.037  -2.093  0.00  0.00     0.031 C 
ATOM     17  C22 ZIN AC000       2.698  -4.474  -1.491  0.00  0.00     0.048 C 
ATOM     18  C23 ZIN AC000       3.831  -3.986  -2.401  0.00  0.00     0.273 C 
ATOM     19  N24 ZIN AC000       3.619  -4.540  -3.747  0.00  0.00     0.089 N 
ATOM     20  C25 ZIN AC000       4.737  -4.200  -4.638  0.00  0.00     0.310 C 
ENDROOT
BRANCH   1  21
ATOM     21  O2  ZIN AC000       0.002  -0.004   0.002  0.00  0.00    -0.353 OA
ATOM     22  C1  ZIN AC000      -0.017   1.425   0.010  0.00  0.00     0.210 C 
ENDBRANCH   1  21
TORSDOF 1
