REMARK  5 active torsions:
REMARK  status: ('A' for Active; 'I' for Inactive)
REMARK    1  A    between atoms: O2_2  and  C3_3 
REMARK    2  A    between atoms: C8_8  and  S9_9 
REMARK    3  A    between atoms: S9_9  and  C11_11 
REMARK    4  A    between atoms: C11_11  and  C12_12 
REMARK    5  A    between atoms: C17_17  and  O18_18 
ROOT
ATOM      1  S9  <0> d           2.778  -5.380   4.529  0.00  0.00     0.091 S 
ATOM      2  O10 <0> d           3.871  -4.905   5.302  0.00  0.00    -0.249 OA
ENDROOT
BRANCH   1   3
ATOM      3  C8  <0> d           2.242  -3.938   3.671  0.00  0.00     0.198 A 
ATOM      4  N7  <0> d           2.448  -2.716   4.066  0.00  0.00    -0.221 NA
ATOM      5  C6  <0> d           1.903  -1.849   3.172  0.00  0.00     0.086 A 
ATOM      6  C5  <0> d           1.834  -0.456   3.104  0.00  0.00     0.037 A 
ATOM      7  C23 <0> d           1.322  -2.623   2.154  0.00  0.00     0.066 A 
ATOM      8  C4  <0> d           1.203   0.145   2.052  0.00  0.00     0.039 A 
ATOM      9  C3  <0> d           0.626  -0.619   1.042  0.00  0.00     0.070 A 
ATOM     10  C24 <0> d           0.679  -2.000   1.093  0.00  0.00     0.068 A 
ATOM     11  N22 <0> d           1.552  -3.940   2.497  0.00  0.00    -0.331 N 
ATOM     12  H42 <0> d           1.275  -4.723   1.995  0.00  0.00     0.168 HD
BRANCH   9  13
ATOM     13  O2  <0> d           0.002  -0.004   0.002  0.00  0.00    -0.356 OA
ATOM     14  C1  <0> d          -0.017   1.425   0.010  0.00  0.00     0.210 C 
ENDBRANCH   9  13
ENDBRANCH   1   3
BRANCH   1  15
ATOM     15  C11 <0> d           1.379  -5.747   5.624  0.00  0.00     0.177 C 
BRANCH  15  16
ATOM     16  C12 <0> d           1.687  -6.976   6.440  0.00  0.00     0.054 A 
ATOM     17  C20 <0> d           2.314  -6.843   7.662  0.00  0.00    -0.003 A 
ATOM     18  C17 <0> d           2.590  -7.985   8.410  0.00  0.00     0.083 A 
ATOM     19  C21 <0> d           2.684  -5.479   8.186  0.00  0.00     0.053 C 
ATOM     20  C15 <0> d           2.228  -9.222   7.883  0.00  0.00    -0.011 A 
ATOM     21  C14 <0> d           1.610  -9.272   6.651  0.00  0.00     0.126 A 
ATOM     22  C16 <0> d           2.509 -10.490   8.648  0.00  0.00     0.052 C 
ATOM     23  N13 <0> d           1.360  -8.166   5.974  0.00  0.00    -0.263 NA
BRANCH  18  24
ATOM     24  O18 <0> d           3.200  -7.894   9.619  0.00  0.00    -0.355 OA
ATOM     25  C19 <0> d           4.628  -7.942   9.629  0.00  0.00     0.210 C 
ENDBRANCH  18  24
ENDBRANCH  15  16
ENDBRANCH   1  15
TORSDOF 5
