REMARK  6 active torsions:
REMARK  status: ('A' for Active; 'I' for Inactive)
REMARK    1  A    between atoms: C2_2  and  C3_3 
REMARK    2  A    between atoms: C2_2  and  C23_23 
REMARK    3  A    between atoms: C3_3  and  C4_4 
REMARK    4  A    between atoms: C4_4  and  C5_5 
REMARK    5  A    between atoms: C5_5  and  N6_6 
REMARK    6  A    between atoms: C10_10  and  N11_11 
ROOT
ATOM      1  N6  <0> d           4.910   0.855  -0.053  0.00  0.00    -0.068 N 
ATOM      2  H7  <0> d           4.837   0.252  -0.858  0.00  0.00     0.280 HD
ATOM      3  C8  <0> d           4.900   0.045   1.171  0.00  0.00     0.264 C 
ATOM      4  C9  <0> d           6.150  -0.782   1.261  0.00  0.00     0.026 C 
ATOM      5  C10 <0> d           7.230  -0.521   0.570  0.00  0.00     0.021 C 
ATOM      6  C21 <0> d           7.315   0.635  -0.388  0.00  0.00     0.085 C 
ATOM      7  C22 <0> d           6.170   1.613  -0.117  0.00  0.00     0.241 C 
ENDROOT
BRANCH   1   8
ATOM      8  C5  <0> d           3.775   1.788  -0.033  0.00  0.00     0.235 C 
BRANCH   8   9
ATOM      9  C4  <0> d           2.465   1.000  -0.087  0.00  0.00     0.035 C 
BRANCH   9  10
ATOM     10  C3  <0> d           1.284   1.971  -0.067  0.00  0.00     0.085 C 
BRANCH  10  11
ATOM     11  C2  <0> d          -0.007   1.194  -0.120  0.00  0.00     0.159 C 
ATOM     12  O1  <0> d           0.017  -0.017  -0.169  0.00  0.00    -0.292 OA
BRANCH  11  13
ATOM     13  C23 <0> d          -1.293   1.905  -0.119  0.00  0.00     0.010 A 
ATOM     14  C29 <0> d          -2.493   1.187  -0.174  0.00  0.00     0.018 A 
ATOM     15  C28 <0> d          -3.696   1.859  -0.166  0.00  0.00     0.043 A 
ATOM     16  C26 <0> d          -3.718   3.245  -0.115  0.00  0.00     0.116 A 
ATOM     17  C25 <0> d          -2.533   3.964  -0.067  0.00  0.00     0.043 A 
ATOM     18  F27 <0> d          -4.901   3.899  -0.113  0.00  0.00    -0.206 F 
ATOM     19  C24 <0> d          -1.324   3.304  -0.068  0.00  0.00     0.018 A 
ENDBRANCH  11  13
ENDBRANCH  10  11
ENDBRANCH   9  10
ENDBRANCH   8   9
ENDBRANCH   1   8
BRANCH   5  20
ATOM     20  N11 <0> d           8.343  -1.345   0.728  0.00  0.00    -0.266 N 
ATOM     21  C20 <0> d           9.509  -1.296  -0.034  0.00  0.00     0.070 A 
ATOM     22  C15 <0> d          10.357  -2.289   0.462  0.00  0.00     0.063 A 
ATOM     23  C19 <0> d           9.927  -0.492  -1.083  0.00  0.00     0.032 A 
ATOM     24  N14 <0> d           9.677  -2.916   1.503  0.00  0.00    -0.306 N 
ATOM     25  C16 <0> d          11.608  -2.475  -0.105  0.00  0.00     0.032 A 
ATOM     26  C12 <0> d           8.473  -2.329   1.638  0.00  0.00     0.332 A 
ATOM     27  H39 <0> d          10.013  -3.651   2.039  0.00  0.00     0.171 HD
ATOM     28  O13 <0> d           7.630  -2.640   2.458  0.00  0.00    -0.246 OA
ATOM     29  C17 <0> d          12.013  -1.673  -1.155  0.00  0.00     0.002 A 
ATOM     30  C18 <0> d          11.175  -0.685  -1.643  0.00  0.00     0.002 A 
ENDBRANCH   5  20
TORSDOF 6
