REMARK  11 active torsions:
REMARK  status: ('A' for Active; 'I' for Inactive)
REMARK    1  A    between atoms: C2_2  and  C3_3 
REMARK    2  A    between atoms: C3_3  and  C4_4 
REMARK    3  A    between atoms: C4_4  and  C5_5 
REMARK    4  A    between atoms: C5_5  and  C6_6 
REMARK    5  A    between atoms: C6_6  and  O7_7 
REMARK    6  A    between atoms: O7_7  and  C8_8 
REMARK    7  A    between atoms: C8_8  and  C10_10 
REMARK    8  A    between atoms: C10_10  and  C11_11 
REMARK    9  A    between atoms: C11_11  and  C12_12 
REMARK   10  A    between atoms: C12_12  and  C14_14 
REMARK   11  A    between atoms: C14_14  and  N15_15 
ROOT
ATOM      1  C8  ZIN AC000       2.260  -5.847  -3.888  0.00  0.00     0.259 C 
ATOM      2  O9  ZIN AC000       1.799  -6.594  -3.057  0.00  0.00    -0.265 OA
ENDROOT
BRANCH   1   3
ATOM      3  O7  ZIN AC000       2.155  -4.519  -3.727  0.00  0.00    -0.321 OA
BRANCH   3   4
ATOM      4  C6  ZIN AC000       1.476  -4.051  -2.532  0.00  0.00     0.178 C 
BRANCH   4   5
ATOM      5  C5  ZIN AC000       1.455  -2.521  -2.524  0.00  0.00     0.027 C 
BRANCH   5   6
ATOM      6  C4  ZIN AC000       0.739  -2.027  -1.265  0.00  0.00     0.002 C 
BRANCH   6   7
ATOM      7  C3  ZIN AC000       0.718  -0.497  -1.257  0.00  0.00    -0.000 C 
BRANCH   7   8
ATOM      8  C2  ZIN AC000       0.002  -0.004   0.002  0.00  0.00    -0.005 C 
ATOM      9  C1  ZIN AC000      -0.019   1.526   0.010  0.00  0.00     0.005 C 
ENDBRANCH   7   8
ENDBRANCH   6   7
ENDBRANCH   5   6
ENDBRANCH   4   5
ENDBRANCH   3   4
ENDBRANCH   1   3
BRANCH   1  10
ATOM     10  C10 ZIN AC000       2.953  -6.407  -5.103  0.00  0.00     0.118 C 
BRANCH  10  11
ATOM     11  C11 ZIN AC000       2.934  -7.936  -5.042  0.00  0.00     0.090 C 
BRANCH  11  12
ATOM     12  C12 ZIN AC000       3.626  -8.496  -6.258  0.00  0.00     0.155 C 
ATOM     13  O13 ZIN AC000       4.087  -7.750  -7.087  0.00  0.00    -0.296 OA
BRANCH  12  14
ATOM     14  C14 ZIN AC000       3.744  -9.988  -6.438  0.00  0.00     0.344 C 
BRANCH  14  15
ATOM     15  N15 ZIN AC000       4.454 -10.275  -7.691  0.00  0.00     0.085 N 
ATOM     16  H35 ZIN AC000       5.356  -9.823  -7.707  0.00  0.00     0.313 HD
ATOM     17  H36 ZIN AC000       4.546 -11.270  -7.835  0.00  0.00     0.313 HD
ENDBRANCH  14  15
ENDBRANCH  12  14
ENDBRANCH  11  12
ENDBRANCH  10  11
ENDBRANCH   1  10
TORSDOF 11
