REMARK  11 active torsions:
REMARK  status: ('A' for Active; 'I' for Inactive)
REMARK    1  A    between atoms: C2_2  and  C3_3 
REMARK    2  A    between atoms: C3_3  and  N4_4 
REMARK    3  A    between atoms: N4_4  and  S5_5 
REMARK    4  A    between atoms: S5_5  and  N8_8 
REMARK    5  A    between atoms: N8_8  and  C9_9 
REMARK    6  A    between atoms: C13_13  and  O14_14 
REMARK    7  A    between atoms: O14_14  and  C15_15 
REMARK    8  A    between atoms: C15_15  and  C16_16 
REMARK    9  A    between atoms: C16_16  and  O17_17 
REMARK   10  A    between atoms: O17_17  and  C18_18 
REMARK   11  A    between atoms: C25_25  and  C26_26 
ROOT
ATOM      1  C9  ZIN AC000      -5.159  -3.102  -0.731  0.00  0.00     0.180 A 
ATOM      2  N10 ZIN AC000      -5.479  -3.918   0.269  0.00  0.00    -0.221 NA
ATOM      3  C11 ZIN AC000      -6.672  -4.475   0.333  0.00  0.00     0.238 A 
ATOM      4  N12 ZIN AC000      -7.599  -4.256  -0.577  0.00  0.00    -0.217 NA
ATOM      5  C13 ZIN AC000      -7.368  -3.455  -1.612  0.00  0.00     0.180 A 
ATOM      6  C25 ZIN AC000      -6.117  -2.835  -1.722  0.00  0.00     0.076 A 
ENDROOT
BRANCH   5   7
ATOM      7  O14 ZIN AC000      -8.329  -3.237  -2.542  0.00  0.00    -0.332 OA
BRANCH   7   8
ATOM      8  C15 ZIN AC000      -9.579  -3.903  -2.352  0.00  0.00     0.204 C 
BRANCH   8   9
ATOM      9  C16 ZIN AC000     -10.530  -3.538  -3.494  0.00  0.00     0.205 C 
BRANCH   9  10
ATOM     10  O17 ZIN AC000     -10.013  -4.046  -4.725  0.00  0.00    -0.317 OA
BRANCH  10  11
ATOM     11  C18 ZIN AC000     -10.741  -3.808  -5.843  0.00  0.00     0.268 A 
ATOM     12  N24 ZIN AC000     -10.303  -4.260  -7.007  0.00  0.00    -0.218 NA
ATOM     13  C23 ZIN AC000     -10.991  -4.049  -8.117  0.00  0.00     0.141 A 
ATOM     14  C21 ZIN AC000     -12.179  -3.336  -8.051  0.00  0.00     0.046 A 
ATOM     15  C20 ZIN AC000     -12.605  -2.873  -6.815  0.00  0.00     0.141 A 
ATOM     16 Br22 ZIN AC000     -13.195  -3.003  -9.611  0.00  0.00    -0.048 Br
ATOM     17  N19 ZIN AC000     -11.870  -3.124  -5.744  0.00  0.00    -0.218 NA
ENDBRANCH  10  11
ENDBRANCH   9  10
ENDBRANCH   8   9
ENDBRANCH   7   8
ENDBRANCH   5   7
BRANCH   6  18
ATOM     18  C26 ZIN AC000      -5.810  -1.933  -2.857  0.00  0.00    -0.018 A 
ATOM     19  C32 ZIN AC000      -5.569  -0.579  -2.629  0.00  0.00     0.014 A 
ATOM     20  C31 ZIN AC000      -5.277   0.255  -3.689  0.00  0.00     0.020 A 
ATOM     21  C29 ZIN AC000      -5.236  -0.247  -4.978  0.00  0.00     0.011 A 
ATOM     22  C28 ZIN AC000      -5.480  -1.590  -5.210  0.00  0.00     0.020 A 
ATOM     23 Br30 ZIN AC000      -4.843   0.903  -6.426  0.00  0.00    -0.051 Br
ATOM     24  C27 ZIN AC000      -5.767  -2.434  -4.157  0.00  0.00     0.014 A 
ENDBRANCH   6  18
BRANCH   1  25
ATOM     25  N8  ZIN AC000      -3.903  -2.522  -0.791  0.00  0.00    -0.125 NA
BRANCH  25  26
ATOM     26  S5  ZIN AC000      -2.784  -2.847   0.385  0.00  0.00     0.341 S 
ATOM     27  O6  ZIN AC000      -2.453  -4.223   0.254  0.00  0.00    -0.181 OA
ATOM     28  O7  ZIN AC000      -3.287  -2.280   1.586  0.00  0.00    -0.181 OA
BRANCH  26  29
ATOM     29  N4  ZIN AC000      -1.413  -1.998   0.005  0.00  0.00    -0.301 N 
ATOM     30  H40 ZIN AC000      -0.598  -2.471  -0.223  0.00  0.00     0.173 HD
BRANCH  29  31
ATOM     31  C3  ZIN AC000      -1.433  -0.534   0.013  0.00  0.00     0.133 C 
BRANCH  31  32
ATOM     32  C2  ZIN AC000       0.002  -0.004   0.002  0.00  0.00     0.016 C 
ATOM     33  C1  ZIN AC000      -0.019   1.526   0.010  0.00  0.00     0.006 C 
ENDBRANCH  31  32
ENDBRANCH  29  31
ENDBRANCH  26  29
ENDBRANCH  25  26
ENDBRANCH   1  25
TORSDOF 11
