REMARK  12 active torsions:
REMARK  status: ('A' for Active; 'I' for Inactive)
REMARK       I    between atoms: C2_2  and  N3_3 
REMARK    1  A    between atoms: C2_2  and  C36_36 
REMARK    2  A    between atoms: N3_3  and  C4_4 
REMARK    3  A    between atoms: N7_7  and  C9_9 
REMARK    4  A    between atoms: C9_9  and  C10_10 
REMARK    5  A    between atoms: C10_10  and  C11_11 
REMARK    6  A    between atoms: C11_11  and  C12_12 
REMARK    7  A    between atoms: C12_12  and  C13_13 
REMARK    8  A    between atoms: C13_13  and  C14_14 
REMARK       I    between atoms: C14_14  and  N16_16 
REMARK    9  A    between atoms: N16_16  and  C17_17 
REMARK   10  A    between atoms: C17_17  and  C18_18 
REMARK   11  A    between atoms: C41_41  and  C42_42 
REMARK   12  A    between atoms: C45_45  and  C46_46 
ROOT
ATOM      1  C4  ZIN AC000       2.209   1.061   0.030  0.00  0.00     0.087 C 
ATOM      2  C5  ZIN AC000       2.593   0.731  -1.415  0.00  0.00     0.053 C 
ATOM      3  C6  ZIN AC000       3.938   0.001  -1.427  0.00  0.00     0.237 C 
ATOM      4  N7  ZIN AC000       4.968   0.858  -0.829  0.00  0.00    -0.071 N 
ATOM      5  H8  ZIN AC000       5.011   1.732  -1.331  0.00  0.00     0.279 HD
ATOM      6  C34 ZIN AC000       4.644   1.120   0.579  0.00  0.00     0.237 C 
ATOM      7  C35 ZIN AC000       3.326   1.893   0.667  0.00  0.00     0.053 C 
ENDROOT
BRANCH   4   8
ATOM      8  C9  ZIN AC000       6.271   0.184  -0.911  0.00  0.00     0.235 C 
BRANCH   8   9
ATOM      9  C10 ZIN AC000       7.324   1.019  -0.178  0.00  0.00     0.028 C 
BRANCH   9  10
ATOM     10  C11 ZIN AC000       8.681   0.317  -0.264  0.00  0.00     0.003 C 
BRANCH  10  11
ATOM     11  C12 ZIN AC000       9.733   1.152   0.469  0.00  0.00     0.029 C 
BRANCH  11  12
ATOM     12  C13 ZIN AC000      11.112   0.516   0.277  0.00  0.00     0.096 A 
ATOM     13  C33 ZIN AC000      11.508   0.563  -1.178  0.00  0.00    -0.025 A 
ATOM     14  C28 ZIN AC000      11.676  -0.750  -1.610  0.00  0.00    -0.018 A 
ATOM     15  C32 ZIN AC000      11.703   1.613  -2.050  0.00  0.00     0.009 A 
ATOM     16  C27 ZIN AC000      11.405  -1.678  -0.485  0.00  0.00    -0.018 A 
ATOM     17  C29 ZIN AC000      12.045  -0.993  -2.934  0.00  0.00     0.013 A 
ATOM     18  C22 ZIN AC000      11.066  -0.946   0.650  0.00  0.00    -0.025 A 
ATOM     19  C26 ZIN AC000      11.439  -3.072  -0.414  0.00  0.00     0.013 A 
ATOM     20  C23 ZIN AC000      10.768  -1.591   1.831  0.00  0.00     0.009 A 
ATOM     21  C24 ZIN AC000      10.805  -2.973   1.894  0.00  0.00     0.001 A 
ATOM     22  C25 ZIN AC000      11.140  -3.709   0.772  0.00  0.00     0.001 A 
ATOM     23  C30 ZIN AC000      12.239   0.064  -3.800  0.00  0.00     0.001 A 
ATOM     24  C31 ZIN AC000      12.070   1.364  -3.362  0.00  0.00     0.001 A 
BRANCH  12  25
ATOM     25  C14 ZIN AC000      12.135   1.235   1.118  0.00  0.00     0.235 C 
ATOM     26  O15 ZIN AC000      11.801   2.173   1.810  0.00  0.00    -0.272 OA
ATOM     27  N16 ZIN AC000      13.423   0.836   1.100  0.00  0.00    -0.351 N 
ATOM     28  H66 ZIN AC000      13.690   0.086   0.546  0.00  0.00     0.162 HD
BRANCH  27  29
ATOM     29  C17 ZIN AC000      14.418   1.535   1.917  0.00  0.00     0.240 C 
BRANCH  29  30
ATOM     30  C18 ZIN AC000      15.789   0.888   1.714  0.00  0.00     0.403 C 
ATOM     31  F19 ZIN AC000      16.151   0.973   0.365  0.00  0.00    -0.169 F 
ATOM     32  F20 ZIN AC000      16.740   1.556   2.494  0.00  0.00    -0.169 F 
ATOM     33  F21 ZIN AC000      15.732  -0.456   2.098  0.00  0.00    -0.169 F 
ENDBRANCH  29  30
ENDBRANCH  27  29
ENDBRANCH  12  25
ENDBRANCH  11  12
ENDBRANCH  10  11
ENDBRANCH   9  10
ENDBRANCH   8   9
ENDBRANCH   4   8
BRANCH   1  34
ATOM     34  N3  ZIN AC000       0.960   1.827   0.043  0.00  0.00    -0.352 N 
ATOM     35  C2  ZIN AC000      -0.225   1.184   0.020  0.00  0.00     0.252 C 
ATOM     36  O1  ZIN AC000      -0.256  -0.031  -0.011  0.00  0.00    -0.268 OA
ATOM     37  H52 ZIN AC000       0.986   2.796   0.068  0.00  0.00     0.163 HD
BRANCH  35  38
ATOM     38  C36 ZIN AC000      -1.483   1.956   0.027  0.00  0.00     0.043 A 
ATOM     39  C41 ZIN AC000      -2.603   1.490  -0.686  0.00  0.00    -0.010 A 
ATOM     40  C40 ZIN AC000      -3.784   2.225  -0.666  0.00  0.00     0.013 A 
ATOM     41  C39 ZIN AC000      -3.850   3.409   0.041  0.00  0.00     0.001 A 
ATOM     42  C38 ZIN AC000      -2.747   3.871   0.739  0.00  0.00     0.001 A 
ATOM     43  C37 ZIN AC000      -1.568   3.154   0.736  0.00  0.00     0.018 A 
BRANCH  39  44
ATOM     44  C42 ZIN AC000      -2.528   0.219  -1.444  0.00  0.00    -0.025 A 
ATOM     45  C51 ZIN AC000      -3.426  -0.812  -1.172  0.00  0.00     0.013 A 
ATOM     46  C50 ZIN AC000      -3.355  -1.992  -1.885  0.00  0.00     0.017 A 
ATOM     47  C45 ZIN AC000      -2.387  -2.157  -2.859  0.00  0.00     0.048 A 
ATOM     48  C44 ZIN AC000      -1.489  -1.140  -3.130  0.00  0.00     0.017 A 
ATOM     49  C43 ZIN AC000      -1.554   0.046  -2.427  0.00  0.00     0.013 A 
BRANCH  47  50
ATOM     50  C46 ZIN AC000      -2.310  -3.450  -3.629  0.00  0.00     0.417 C 
ATOM     51  F47 ZIN AC000      -1.460  -4.339  -2.964  0.00  0.00    -0.166 F 
ATOM     52  F48 ZIN AC000      -3.588  -4.011  -3.727  0.00  0.00    -0.166 F 
ATOM     53  F49 ZIN AC000      -1.811  -3.200  -4.912  0.00  0.00    -0.166 F 
ENDBRANCH  47  50
ENDBRANCH  39  44
ENDBRANCH  35  38
ENDBRANCH   1  34
TORSDOF 12
