REMARK  3 active torsions:
REMARK  status: ('A' for Active; 'I' for Inactive)
REMARK    1  A    between atoms: N1_1  and  C5_5 
REMARK    2  A    between atoms: C5_5  and  C6_6 
REMARK    3  A    between atoms: C10_9  and  C12_10 
ROOT
ATOM      1  C6  <0> d          -0.720   3.008   1.225  0.00  0.00     0.011 C 
ATOM      2  C8  <0> d          -1.565   3.513   0.054  0.00  0.00     0.007 C 
ATOM      3  C9  <0> d          -1.586   5.043   0.062  0.00  0.00     0.015 C 
ATOM      4  C10 <0> d          -2.190   5.538   1.378  0.00  0.00     0.087 C 
ATOM      5  C15 <0> d          -1.345   5.033   2.549  0.00  0.00     0.015 C 
ATOM      6  C16 <0> d          -1.324   3.503   2.540  0.00  0.00     0.007 C 
ENDROOT
BRANCH   1   7
ATOM      7  C5  <0> d          -0.699   1.479   1.216  0.00  0.00     0.234 C 
BRANCH   7   8
ATOM      8  N1  <0> d          -0.012   1.005   0.008  0.00  0.00    -0.079 N 
ATOM      9  H2  <0> d           0.002  -0.004   0.002  0.00  0.00     0.274 HD
ATOM     10  H3  <0> d           0.935   1.354   0.000  0.00  0.00     0.274 HD
ATOM     11  H4  <0> d          -0.500   1.339  -0.810  0.00  0.00     0.274 HD
ENDBRANCH   7   8
ENDBRANCH   1   7
BRANCH   4  12
ATOM     12  C12 <0> d          -2.211   7.045   1.386  0.00  0.00     0.177 C 
ATOM     13  O13 <0> d          -3.171   7.639   1.845  0.00  0.00    -0.648 OA
ATOM     14  O14 <0> d          -1.266   7.670   0.934  0.00  0.00    -0.648 OA
ENDBRANCH   4  12
TORSDOF 3
