REMARK  2 active torsions:
REMARK  status: ('A' for Active; 'I' for Inactive)
REMARK    1  A    between atoms: C3_3  and  O4_4 
REMARK    2  A    between atoms: C25_21  and  C26_22 
ROOT
ATOM      1  C1  <0> d          -0.188  -0.798  -0.803  0.00  0.00     0.015 C 
ATOM      2  C2  <0> d          -0.170   0.345  -0.538  0.00  0.00    -0.078 C 
ATOM      3  C3  <0> d          -0.148   1.775  -0.208  0.00  0.00     0.128 C 
ATOM      4  C5  <0> d          -0.957   2.574  -1.250  0.00  0.00     0.052 C 
ATOM      5  C6  <0> d          -0.155   3.864  -1.504  0.00  0.00     0.010 C 
ATOM      6  C7  <0> d           1.325   3.462  -1.267  0.00  0.00     0.002 C 
ATOM      7  C9  <0> d           1.913   3.014  -2.599  0.00  0.00    -0.005 C 
ATOM      8  C11 <0> d           0.902   2.213  -3.415  0.00  0.00     0.010 C 
ATOM      9  C12 <0> d           1.485   1.905  -4.801  0.00  0.00     0.035 C 
ATOM     10  C13 <0> d           2.811   1.191  -4.606  0.00  0.00    -0.072 C 
ATOM     11  C14 <0> d           2.995   0.024  -5.218  0.00  0.00     0.053 C 
ATOM     12  C15 <0> d           4.272  -0.679  -5.044  0.00  0.00     0.149 C 
ATOM     13  O16 <0> d           4.364  -1.882  -5.146  0.00  0.00    -0.293 OA
ATOM     14  C17 <0> d           5.469   0.197  -4.725  0.00  0.00     0.084 C 
ATOM     15  C18 <0> d           5.102   1.050  -3.512  0.00  0.00     0.017 C 
ATOM     16  C19 <0> d           3.832   1.847  -3.726  0.00  0.00     0.019 C 
ATOM     17  C21 <0> d           3.193   2.208  -2.385  0.00  0.00    -0.002 C 
ATOM     18  C23 <0> d           2.823   0.946  -1.602  0.00  0.00     0.006 C 
ATOM     19  C24 <0> d           2.388   1.380  -0.206  0.00  0.00     0.014 C 
ATOM     20  C25 <0> d           1.258   2.374  -0.192  0.00  0.00     0.006 C 
ENDROOT
BRANCH   3  21
ATOM     21  O4  <0> d          -0.751   1.960   1.086  0.00  0.00    -0.377 OA
ATOM     22  H29 <0> d          -1.667   1.653   1.140  0.00  0.00     0.211 HD
ENDBRANCH   3  21
BRANCH  20  23
ATOM     23  C26 <0> d           1.382   3.117   1.170  0.00  0.00     0.009 C 
ATOM     24  C27 <0> d           2.765   3.761   1.275  0.00  0.00     0.006 C 
ENDBRANCH  20  23
TORSDOF 2
