REMARK  9 active torsions:
REMARK  status: ('A' for Active; 'I' for Inactive)
REMARK    1  A    between atoms: O2_2  and  N3_3 
REMARK    2  A    between atoms: C4_4  and  C5_5 
REMARK    3  A    between atoms: C4_4  and  C27_25 
REMARK       I    between atoms: C5_5  and  N7_7 
REMARK    4  A    between atoms: N7_7  and  C8_8 
REMARK    5  A    between atoms: C13_12  and  C14_13 
REMARK    6  A    between atoms: C17_16  and  C18_17 
REMARK    7  A    between atoms: C18_17  and  O19_18 
REMARK    8  A    between atoms: O19_18  and  C20_19 
REMARK    9  A    between atoms: C30_28  and  N31_29 
ROOT
ATOM      1  C8  ZIN AC000       1.952  -2.460   0.435  0.00  0.00     0.211 C 
ATOM      2  C10 ZIN AC000       2.490  -2.298   1.847  0.00  0.00     0.251 C 
ATOM      3  O11 ZIN AC000       2.216  -2.792   2.920  0.00  0.00    -0.271 OA
ATOM      4  N12 ZIN AC000       3.391  -1.390   1.434  0.00  0.00    -0.293 N 
ATOM      5  C13 ZIN AC000       4.197  -0.381   1.990  0.00  0.00     0.121 C 
ATOM      6  C17 ZIN AC000       4.513   0.686   1.269  0.00  0.00    -0.013 C 
ATOM      7  C23 ZIN AC000       4.161   0.981  -0.152  0.00  0.00     0.115 C 
ATOM      8  S24 ZIN AC000       2.740   0.002  -0.727  0.00  0.00    -0.136 SA
ATOM      9  C25 ZIN AC000       3.147  -1.632  -0.026  0.00  0.00     0.187 C 
ENDROOT
BRANCH   1  10
ATOM     10  N7  ZIN AC000       0.662  -1.802   0.219  0.00  0.00    -0.339 N 
ATOM     11  C5  ZIN AC000      -0.463  -2.538   0.123  0.00  0.00     0.275 C 
ATOM     12  O6  ZIN AC000      -0.397  -3.752   0.126  0.00  0.00    -0.266 OA
ATOM     13  H36 ZIN AC000       0.617  -0.836   0.144  0.00  0.00     0.163 HD
BRANCH  11  14
ATOM     14  C4  ZIN AC000      -1.780  -1.869   0.015  0.00  0.00     0.180 C 
ATOM     15  N3  ZIN AC000      -2.875  -2.575   0.045  0.00  0.00    -0.126 NA
BRANCH  15  16
ATOM     16  O2  ZIN AC000      -2.804  -3.989   0.070  0.00  0.00    -0.261 OA
ATOM     17  C1  ZIN AC000      -4.079  -4.635   0.101  0.00  0.00     0.240 C 
ENDBRANCH  15  16
BRANCH  14  18
ATOM     18  C27 ZIN AC000      -1.853  -0.399  -0.126  0.00  0.00     0.102 A 
ATOM     19  N32 ZIN AC000      -0.767   0.359  -0.277  0.00  0.00    -0.222 NA
ATOM     20  C30 ZIN AC000      -0.955   1.636  -0.396  0.00  0.00     0.164 A 
ATOM     21  S29 ZIN AC000      -2.677   1.988  -0.302  0.00  0.00    -0.062 SA
ATOM     22  C28 ZIN AC000      -3.022   0.272  -0.105  0.00  0.00     0.087 A 
BRANCH  20  23
ATOM     23  N31 ZIN AC000       0.045   2.579  -0.565  0.00  0.00    -0.378 N 
ATOM     24  H45 ZIN AC000      -0.182   3.519  -0.641  0.00  0.00     0.158 HD
ATOM     25  H46 ZIN AC000       0.973   2.300  -0.606  0.00  0.00     0.158 HD
ENDBRANCH  20  23
ENDBRANCH  14  18
ENDBRANCH  11  14
ENDBRANCH   1  10
BRANCH   5  26
ATOM     26  C14 ZIN AC000       4.690  -0.510   3.371  0.00  0.00     0.227 C 
ATOM     27  O15 ZIN AC000       5.311   0.410   3.887  0.00  0.00    -0.643 OA
ATOM     28  O16 ZIN AC000       4.479  -1.536   4.003  0.00  0.00    -0.643 OA
ENDBRANCH   5  26
BRANCH   6  29
ATOM     29  C18 ZIN AC000       5.333   1.736   1.974  0.00  0.00     0.216 C 
BRANCH  29  30
ATOM     30  O19 ZIN AC000       5.527   2.872   1.091  0.00  0.00    -0.317 OA
BRANCH  30  31
ATOM     31  C20 ZIN AC000       6.327   3.856   1.531  0.00  0.00     0.255 C 
ATOM     32  C21 ZIN AC000       6.576   5.067   0.669  0.00  0.00     0.126 C 
ATOM     33  O22 ZIN AC000       6.846   3.771   2.619  0.00  0.00    -0.266 OA
ENDBRANCH  30  31
ENDBRANCH  29  30
ENDBRANCH   6  29
TORSDOF 9
