REMARK  10 active torsions:
REMARK  status: ('A' for Active; 'I' for Inactive)
REMARK    1  A    between atoms: O2_2  and  C3_3 
REMARK    2  A    between atoms: C8_8  and  O9_9 
REMARK    3  A    between atoms: O9_9  and  C10_10 
REMARK    4  A    between atoms: C10_10  and  C11_11 
REMARK    5  A    between atoms: C11_11  and  O13_12 
REMARK    6  A    between atoms: C11_11  and  C14_13 
REMARK    7  A    between atoms: C14_13  and  N15_14 
REMARK    8  A    between atoms: N19_18  and  C20_19 
REMARK    9  A    between atoms: C20_19  and  C21_20 
REMARK       I    between atoms: C21_20  and  N23_22 
REMARK   10  A    between atoms: N23_22  and  C24_23 
ROOT
ATOM      1  N15 ZIN AC000       4.800  -6.105  -1.327  0.00  0.00    -0.065 N 
ATOM      2  H16 ZIN AC000       5.482  -6.427  -1.996  0.00  0.00     0.280 HD
ATOM      3  C17 ZIN AC000       3.875  -7.201  -1.006  0.00  0.00     0.265 C 
ATOM      4  C18 ZIN AC000       4.662  -8.379  -0.428  0.00  0.00     0.300 C 
ATOM      5  N19 ZIN AC000       5.372  -7.944   0.783  0.00  0.00     0.100 N 
ATOM      6  C32 ZIN AC000       6.283  -6.830   0.482  0.00  0.00     0.300 C 
ATOM      7  C33 ZIN AC000       5.483  -5.665  -0.104  0.00  0.00     0.265 C 
ENDROOT
BRANCH   1   8
ATOM      8  C14 ZIN AC000       4.046  -4.981  -1.899  0.00  0.00     0.268 C 
BRANCH   8   9
ATOM      9  C11 ZIN AC000       5.020  -3.891  -2.349  0.00  0.00     0.168 C 
BRANCH   9  10
ATOM     10  C10 ZIN AC000       4.233  -2.670  -2.829  0.00  0.00     0.209 C 
BRANCH  10  11
ATOM     11  O9  ZIN AC000       5.140  -1.610  -3.139  0.00  0.00    -0.346 OA
BRANCH  11  12
ATOM     12  C8  ZIN AC000       4.598  -0.444  -3.583  0.00  0.00     0.102 A 
ATOM     13  C3  ZIN AC000       5.422   0.634  -3.893  0.00  0.00     0.101 A 
ATOM     14  C4  ZIN AC000       4.866   1.820  -4.344  0.00  0.00     0.039 A 
ATOM     15  C5  ZIN AC000       3.495   1.932  -4.482  0.00  0.00     0.003 A 
ATOM     16  C6  ZIN AC000       2.676   0.863  -4.169  0.00  0.00     0.003 A 
ATOM     17  C7  ZIN AC000       3.225  -0.323  -3.717  0.00  0.00     0.039 A 
BRANCH  13  18
ATOM     18  O2  ZIN AC000       6.771   0.522  -3.757  0.00  0.00    -0.353 OA
ATOM     19  C1  ZIN AC000       7.554   1.670  -4.093  0.00  0.00     0.210 C 
ENDBRANCH  13  18
ENDBRANCH  11  12
ENDBRANCH  10  11
ENDBRANCH   9  10
BRANCH   9  20
ATOM     20  O13 ZIN AC000       5.829  -4.386  -3.417  0.00  0.00    -0.392 OA
ATOM     21  H43 ZIN AC000       5.327  -4.659  -4.197  0.00  0.00     0.210 HD
ENDBRANCH   9  20
ENDBRANCH   8   9
ENDBRANCH   1   8
BRANCH   5  22
ATOM     22  C20 ZIN AC000       6.095  -9.063   1.401  0.00  0.00     0.375 C 
BRANCH  22  23
ATOM     23  C21 ZIN AC000       6.604  -8.646   2.756  0.00  0.00     0.250 C 
ATOM     24  O22 ZIN AC000       6.385  -7.526   3.168  0.00  0.00    -0.271 OA
ATOM     25  N23 ZIN AC000       7.301  -9.517   3.512  0.00  0.00    -0.325 N 
ATOM     26  H52 ZIN AC000       7.418 -10.433   3.214  0.00  0.00     0.169 HD
BRANCH  25  27
ATOM     27  C24 ZIN AC000       7.857  -9.101   4.727  0.00  0.00     0.046 A 
ATOM     28  C30 ZIN AC000       7.043  -8.575   5.721  0.00  0.00    -0.035 A 
ATOM     29  C29 ZIN AC000       7.594  -8.171   6.921  0.00  0.00     0.009 A 
ATOM     30  C31 ZIN AC000       5.558  -8.457   5.495  0.00  0.00     0.050 C 
ATOM     31  C28 ZIN AC000       8.957  -8.278   7.128  0.00  0.00     0.001 A 
ATOM     32  C27 ZIN AC000       9.772  -8.796   6.138  0.00  0.00     0.009 A 
ATOM     33  C25 ZIN AC000       9.226  -9.208   4.938  0.00  0.00    -0.035 A 
ATOM     34  C26 ZIN AC000      10.114  -9.772   3.860  0.00  0.00     0.050 C 
ENDBRANCH  25  27
ENDBRANCH  22  23
ENDBRANCH   5  22
TORSDOF 10
