REMARK  3 active torsions:
REMARK  status: ('A' for Active; 'I' for Inactive)
REMARK    1  A    between atoms: C4_4  and  O5_5 
REMARK    2  A    between atoms: O5_5  and  C6_6 
REMARK    3  A    between atoms: C6_6  and  C7_7 
ROOT
ATOM      1  O5  ZIN AC000       0.029  -2.749  -2.385  0.00  0.00    -0.349 OA
ENDROOT
BRANCH   1   2
ATOM      2  C4  ZIN AC000       0.025  -2.075  -1.205  0.00  0.00     0.069 A 
ATOM      3  C3  ZIN AC000       0.006  -0.688  -1.198  0.00  0.00     0.043 A 
ATOM      4  C2  ZIN AC000       0.002  -0.004   0.002  0.00  0.00    -0.059 A 
ATOM      5  C1  ZIN AC000      -0.018   1.503   0.010  0.00  0.00     0.048 C 
ATOM      6  C17 ZIN AC000       0.023  -0.701   1.196  0.00  0.00     0.013 A 
ATOM      7  C15 ZIN AC000       0.037  -2.084   1.192  0.00  0.00    -0.059 A 
ATOM      8  C14 ZIN AC000       0.041  -2.772  -0.006  0.00  0.00     0.043 A 
ATOM      9  C16 ZIN AC000       0.054  -2.841   2.495  0.00  0.00     0.048 C 
ENDBRANCH   1   2
BRANCH   1  10
ATOM     10  C6  ZIN AC000       0.049  -4.177  -2.316  0.00  0.00     0.210 C 
BRANCH  10  11
ATOM     11  C7  ZIN AC000       0.051  -4.756  -3.732  0.00  0.00     0.175 A 
ATOM     12  O13 ZIN AC000       1.312  -4.465  -4.401  0.00  0.00    -0.295 OA
ATOM     13  C11 ZIN AC000       1.926  -5.617  -4.710  0.00  0.00     0.361 A 
ATOM     14  N10 ZIN AC000       1.246  -6.710  -4.340  0.00  0.00    -0.334 N 
ATOM     15  O12 ZIN AC000       3.000  -5.663  -5.276  0.00  0.00    -0.239 OA
ATOM     16  C9  ZIN AC000      -0.005  -6.295  -3.687  0.00  0.00     0.159 A 
ATOM     17  H26 ZIN AC000       1.531  -7.627  -4.481  0.00  0.00     0.164 HD
ENDBRANCH  10  11
ENDBRANCH   1  10
TORSDOF 3
