REMARK  10 active torsions:
REMARK  status: ('A' for Active; 'I' for Inactive)
REMARK    1  A    between atoms: O2_2  and  C3_3 
REMARK    2  A    between atoms: C3_3  and  C5_5 
REMARK    3  A    between atoms: C7_6  and  O9_7 
REMARK    4  A    between atoms: C11_9  and  O13_10 
REMARK    5  A    between atoms: O13_10  and  C14_11 
REMARK    6  A    between atoms: C14_11  and  C16_13 
REMARK    7  A    between atoms: C18_15  and  O19_16 
REMARK    8  A    between atoms: C21_18  and  O22_19 
REMARK    9  A    between atoms: C24_21  and  O25_22 
REMARK   10  A    between atoms: C41_37  and  O42_38 
ROOT
ATOM      1  C5  ZIN AC000      -1.244  -2.135   0.003  0.00  0.00     0.121 C 
ATOM      2  C7  ZIN AC000      -0.553  -2.666  -1.255  0.00  0.00     0.164 C 
ATOM      3  C11 ZIN AC000      -0.614  -4.195  -1.262  0.00  0.00     0.162 C 
ATOM      4  C28 ZIN AC000      -2.076  -4.644  -1.260  0.00  0.00     0.042 C 
ATOM      5  C29 ZIN AC000      -2.772  -4.118  -0.003  0.00  0.00     0.019 C 
ATOM      6  C31 ZIN AC000      -4.242  -4.543  -0.023  0.00  0.00     0.240 C 
ATOM      7  N32 ZIN AC000      -4.899  -4.030  -1.233  0.00  0.00    -0.061 N 
ATOM      8  H33 ZIN AC000      -4.439  -4.399  -2.052  0.00  0.00     0.280 HD
ATOM      9  C34 ZIN AC000      -6.306  -4.471  -1.212  0.00  0.00     0.240 C 
ATOM     10  C35 ZIN AC000      -6.888  -4.220   0.186  0.00  0.00     0.069 C 
ATOM     11  C36 ZIN AC000      -6.553  -2.806   0.588  0.00  0.00    -0.019 A 
ATOM     12  C37 ZIN AC000      -5.635  -2.049  -0.060  0.00  0.00     0.048 A 
ATOM     13  N38 ZIN AC000      -5.551  -0.818   0.531  0.00  0.00    -0.357 N 
ATOM     14  C39 ZIN AC000      -6.418  -0.750   1.584  0.00  0.00     0.046 A 
ATOM     15  C40 ZIN AC000      -6.705   0.266   2.491  0.00  0.00     0.067 A 
ATOM     16  C41 ZIN AC000      -7.664  -0.006   3.459  0.00  0.00     0.070 A 
ATOM     17  C44 ZIN AC000      -8.314  -1.231   3.530  0.00  0.00     0.038 A 
ATOM     18  C45 ZIN AC000      -8.049  -2.249   2.648  0.00  0.00     0.017 A 
ATOM     19  C46 ZIN AC000      -7.087  -2.001   1.663  0.00  0.00    -0.001 A 
ATOM     20  C47 ZIN AC000      -4.844  -2.562  -1.255  0.00  0.00     0.238 C 
ATOM     21  C49 ZIN AC000      -3.409  -2.054  -1.212  0.00  0.00     0.045 C 
ATOM     22  C50 ZIN AC000      -2.704  -2.588   0.016  0.00  0.00     0.010 C 
ATOM     23  H77 ZIN AC000      -4.963  -0.101   0.245  0.00  0.00     0.166 HD
ENDROOT
BRANCH   3  24
ATOM     24  O13 ZIN AC000       0.047  -4.701  -2.451  0.00  0.00    -0.309 OA
BRANCH  24  25
ATOM     25  C14 ZIN AC000       0.634  -5.910  -2.357  0.00  0.00     0.294 C 
ATOM     26  O15 ZIN AC000       0.595  -6.524  -1.309  0.00  0.00    -0.259 OA
BRANCH  25  27
ATOM     27  C16 ZIN AC000       1.325  -6.487  -3.525  0.00  0.00     0.045 A 
ATOM     28  C27 ZIN AC000       1.934  -7.742  -3.429  0.00  0.00     0.057 A 
ATOM     29  C24 ZIN AC000       2.577  -8.282  -4.526  0.00  0.00     0.105 A 
ATOM     30  C21 ZIN AC000       2.626  -7.575  -5.725  0.00  0.00     0.135 A 
ATOM     31  C18 ZIN AC000       2.024  -6.323  -5.822  0.00  0.00     0.105 A 
ATOM     32  C17 ZIN AC000       1.376  -5.779  -4.729  0.00  0.00     0.057 A 
BRANCH  29  33
ATOM     33  O25 ZIN AC000       3.167  -9.504  -4.434  0.00  0.00    -0.353 OA
ATOM     34  C26 ZIN AC000       3.078 -10.174  -3.175  0.00  0.00     0.210 C 
ENDBRANCH  29  33
BRANCH  30  35
ATOM     35  O22 ZIN AC000       3.262  -8.107  -6.801  0.00  0.00    -0.351 OA
ATOM     36  C23 ZIN AC000       4.652  -7.809  -6.945  0.00  0.00     0.210 C 
ENDBRANCH  30  35
BRANCH  31  37
ATOM     37  O19 ZIN AC000       2.074  -5.634  -6.994  0.00  0.00    -0.353 OA
ATOM     38  C20 ZIN AC000       1.436  -4.356  -7.023  0.00  0.00     0.210 C 
ENDBRANCH  31  37
ENDBRANCH  25  27
ENDBRANCH  24  25
ENDBRANCH   3  24
BRANCH   2  39
ATOM     39  O9  ZIN AC000       0.812  -2.242  -1.264  0.00  0.00    -0.387 OA
ATOM     40  C10 ZIN AC000       1.357  -2.062  -2.573  0.00  0.00     0.202 C 
ENDBRANCH   2  39
BRANCH   1  41
ATOM     41  C3  ZIN AC000      -1.185  -0.630   0.010  0.00  0.00     0.265 C 
ATOM     42  O4  ZIN AC000      -2.208   0.015   0.023  0.00  0.00    -0.265 OA
BRANCH  41  43
ATOM     43  O2  ZIN AC000       0.002  -0.004   0.002  0.00  0.00    -0.326 OA
ATOM     44  C1  ZIN AC000      -0.018   1.448   0.010  0.00  0.00     0.213 C 
ENDBRANCH  41  43
ENDBRANCH   1  41
BRANCH  16  45
ATOM     45  O42 ZIN AC000      -7.976   0.958   4.366  0.00  0.00    -0.356 OA
ATOM     46  C43 ZIN AC000      -8.967   0.634   5.342  0.00  0.00     0.210 C 
ENDBRANCH  16  45
TORSDOF 10
