REMARK  7 active torsions:
REMARK  status: ('A' for Active; 'I' for Inactive)
REMARK    1  A    between atoms: C2_2  and  C3_3 
REMARK    2  A    between atoms: C3_3  and  N4_4 
REMARK    3  A    between atoms: N4_4  and  C6_6 
REMARK    4  A    between atoms: N4_4  and  C13_13 
REMARK    5  A    between atoms: C6_6  and  C7_7 
REMARK    6  A    between atoms: C7_7  and  C8_8 
REMARK    7  A    between atoms: C18_17  and  O19_18 
ROOT
ATOM      1  C13 ZIN AC000       1.626  -2.393  -2.363  0.00  0.00     0.192 C 
ATOM      2  C15 ZIN AC000       1.868  -3.904  -2.272  0.00  0.00     0.038 C 
ATOM      3  C16 ZIN AC000       2.513  -4.367  -3.577  0.00  0.00     0.044 C 
ATOM      4  C17 ZIN AC000       3.708  -3.513  -3.910  0.00  0.00    -0.019 A 
ATOM      5  C18 ZIN AC000       4.624  -4.011  -4.834  0.00  0.00     0.072 A 
ATOM      6  C20 ZIN AC000       5.739  -3.269  -5.185  0.00  0.00     0.037 A 
ATOM      7  C21 ZIN AC000       5.943  -2.027  -4.615  0.00  0.00     0.003 A 
ATOM      8  C22 ZIN AC000       5.036  -1.536  -3.699  0.00  0.00     0.008 A 
ATOM      9  C23 ZIN AC000       3.917  -2.278  -3.341  0.00  0.00    -0.047 A 
ATOM     10  C24 ZIN AC000       2.978  -1.684  -2.324  0.00  0.00     0.072 C 
ENDROOT
BRANCH   1  11
ATOM     11  N4  ZIN AC000       0.804  -1.954  -1.226  0.00  0.00    -0.066 N 
ATOM     12  H5  ZIN AC000       1.258  -2.215  -0.363  0.00  0.00     0.280 HD
BRANCH  11  13
ATOM     13  C3  ZIN AC000       0.642  -0.495  -1.274  0.00  0.00     0.235 C 
BRANCH  13  14
ATOM     14  C2  ZIN AC000      -0.114  -0.026  -0.029  0.00  0.00     0.023 C 
ATOM     15  C1  ZIN AC000      -0.159   1.504  -0.006  0.00  0.00     0.007 C 
ENDBRANCH  13  14
ENDBRANCH  11  13
BRANCH  11  16
ATOM     16  C6  ZIN AC000      -0.515  -2.596  -1.300  0.00  0.00     0.240 C 
BRANCH  16  17
ATOM     17  C7  ZIN AC000      -1.150  -2.304  -2.660  0.00  0.00     0.074 C 
BRANCH  17  18
ATOM     18  C8  ZIN AC000      -2.555  -2.847  -2.686  0.00  0.00    -0.016 A 
ATOM     19  S12 ZIN AC000      -3.007  -4.465  -3.204  0.00  0.00    -0.106 SA
ATOM     20  C11 ZIN AC000      -4.703  -4.127  -2.883  0.00  0.00     0.050 A 
ATOM     21  C10 ZIN AC000      -4.833  -2.878  -2.433  0.00  0.00     0.008 A 
ATOM     22  C9  ZIN AC000      -3.647  -2.171  -2.325  0.00  0.00     0.015 A 
ENDBRANCH  17  18
ENDBRANCH  16  17
ENDBRANCH  11  16
ENDBRANCH   1  11
BRANCH   5  23
ATOM     23  O19 ZIN AC000       4.422  -5.232  -5.395  0.00  0.00    -0.360 OA
ATOM     24  H43 ZIN AC000       3.907  -5.209  -6.213  0.00  0.00     0.217 HD
ENDBRANCH   5  23
TORSDOF 7
