REMARK  5 active torsions:
REMARK  status: ('A' for Active; 'I' for Inactive)
REMARK    1  A    between atoms: C4_4  and  O6_5 
REMARK    2  A    between atoms: C25_21  and  O26_22 
REMARK    3  A    between atoms: C25_21  and  C27_23 
REMARK    4  A    between atoms: C27_23  and  C29_25 
REMARK    5  A    between atoms: C29_25  and  O30_26 
ROOT
ATOM      1  C1  ZIN AC000      -0.581   1.542  -0.233  0.00  0.00     0.019 C 
ATOM      2  C2  ZIN AC000      -0.764   0.024  -0.197  0.00  0.00     0.001 C 
ATOM      3  C3  ZIN AC000      -2.116  -0.317   0.399  0.00  0.00     0.045 C 
ATOM      4  C4  ZIN AC000      -2.198   0.382   1.765  0.00  0.00     0.124 C 
ATOM      5  C7  ZIN AC000      -1.055  -0.038   2.685  0.00  0.00     0.031 C 
ATOM      6  C9  ZIN AC000       0.315   0.178   2.027  0.00  0.00    -0.002 C 
ATOM      7  C11 ZIN AC000       1.406  -0.354   2.961  0.00  0.00     0.010 C 
ATOM      8  C12 ZIN AC000       1.427   0.486   4.239  0.00  0.00     0.035 C 
ATOM      9  C13 ZIN AC000       0.039   0.478   4.852  0.00  0.00    -0.068 C 
ATOM     10  C14 ZIN AC000      -0.064   0.204   6.152  0.00  0.00     0.053 C 
ATOM     11  C15 ZIN AC000      -1.380   0.199   6.799  0.00  0.00     0.149 C 
ATOM     12  O16 ZIN AC000      -1.580  -0.397   7.837  0.00  0.00    -0.293 OA
ATOM     13  C17 ZIN AC000      -2.478   0.978   6.102  0.00  0.00     0.084 C 
ATOM     14  C18 ZIN AC000      -2.482   0.549   4.635  0.00  0.00     0.022 C 
ATOM     15  C19 ZIN AC000      -1.121   0.785   3.977  0.00  0.00    -0.014 C 
ATOM     16  C20 ZIN AC000      -1.035   2.261   3.583  0.00  0.00     0.020 C 
ATOM     17  C21 ZIN AC000       0.314  -0.615   0.719  0.00  0.00     0.002 C 
ATOM     18  C23 ZIN AC000       1.579  -0.490  -0.138  0.00  0.00     0.009 C 
ATOM     19  C24 ZIN AC000       1.075  -0.863  -1.558  0.00  0.00     0.047 C 
ATOM     20  C25 ZIN AC000      -0.454  -0.567  -1.569  0.00  0.00     0.128 C 
ENDROOT
BRANCH  20  21
ATOM     21  O26 ZIN AC000      -1.192  -1.778  -1.746  0.00  0.00    -0.381 OA
ATOM     22  H53 ZIN AC000      -1.009  -2.231  -2.580  0.00  0.00     0.211 HD
ENDBRANCH  20  21
BRANCH  20  23
ATOM     23  C27 ZIN AC000      -0.788   0.414  -2.663  0.00  0.00     0.184 C 
ATOM     24  O28 ZIN AC000       0.049   1.194  -3.051  0.00  0.00    -0.292 OA
BRANCH  23  25
ATOM     25  C29 ZIN AC000      -2.167   0.423  -3.271  0.00  0.00     0.245 C 
BRANCH  25  26
ATOM     26  O30 ZIN AC000      -2.236   1.435  -4.279  0.00  0.00    -0.393 OA
ATOM     27  H56 ZIN AC000      -3.097   1.497  -4.714  0.00  0.00     0.209 HD
ENDBRANCH  25  26
ENDBRANCH  23  25
ENDBRANCH  20  23
BRANCH   4  28
ATOM     28  O6  ZIN AC000      -2.140   1.797   1.569  0.00  0.00    -0.395 OA
ATOM     29  H36 ZIN AC000      -2.855   2.147   1.021  0.00  0.00     0.210 HD
ENDBRANCH   4  28
TORSDOF 5
