REMARK  0 active torsions:
REMARK  status: ('A' for Active; 'I' for Inactive)
REMARK       I    between atoms: N1_1  and  C2_2 
REMARK       I    between atoms: C2_2  and  N4_4 
ROOT
ATOM      1  N1  ZIN AC000      -0.016   1.344   0.009  0.00  0.00    -0.351 N 
ATOM      2  C2  ZIN AC000       0.002  -0.004   0.002  0.00  0.00     0.325 C 
ATOM      3  O3  ZIN AC000       1.063  -0.598  -0.011  0.00  0.00    -0.247 OA
ATOM      4  N4  ZIN AC000      -1.156  -0.694   0.009  0.00  0.00    -0.263 N 
ATOM      5  C5  ZIN AC000      -1.079  -2.084   0.007  0.00  0.00     0.051 A 
ATOM      6  C6  ZIN AC000      -0.173  -2.634   0.923  0.00  0.00     0.031 A 
ATOM      7  C7  ZIN AC000      -0.001  -3.995   1.021  0.00  0.00     0.002 A 
ATOM      8  C8  ZIN AC000      -0.734  -4.833   0.201  0.00  0.00     0.001 A 
ATOM      9  C9  ZIN AC000      -1.625  -4.297  -0.700  0.00  0.00     0.010 A 
ATOM     10  C10 ZIN AC000      -1.810  -2.917  -0.809  0.00  0.00    -0.024 A 
ATOM     11  C11 ZIN AC000      -2.825  -2.501  -1.843  0.00  0.00     0.125 C 
ATOM     12  C12 ZIN AC000      -2.817  -1.038  -2.144  0.00  0.00     0.166 C 
ATOM     13  O13 ZIN AC000      -2.529  -0.655  -3.258  0.00  0.00    -0.292 OA
ATOM     14  C14 ZIN AC000      -3.156  -0.062  -1.107  0.00  0.00     0.037 A 
ATOM     15  C15 ZIN AC000      -4.282   0.759  -1.217  0.00  0.00     0.017 A 
ATOM     16  C16 ZIN AC000      -4.592   1.619  -0.184  0.00  0.00     0.001 A 
ATOM     17  C17 ZIN AC000      -3.803   1.667   0.954  0.00  0.00     0.002 A 
ATOM     18  C18 ZIN AC000      -2.674   0.875   1.062  0.00  0.00     0.031 A 
ATOM     19  C19 ZIN AC000      -2.334   0.031   0.025  0.00  0.00     0.058 A 
ATOM     20  H20 ZIN AC000       0.817   1.840   0.004  0.00  0.00     0.160 HD
ATOM     21  H21 ZIN AC000      -0.863   1.817   0.016  0.00  0.00     0.160 HD
ENDROOT
TORSDOF 0
