REMARK  3 active torsions:
REMARK  status: ('A' for Active; 'I' for Inactive)
REMARK    1  A    between atoms: C2_2  and  C4_4 
REMARK    2  A    between atoms: C2_2  and  C12_12 
REMARK    3  A    between atoms: C4_4  and  C6_6 
ROOT
ATOM      1  C1  ZIN AC000      -0.052   1.541  -0.095  0.00  0.00     0.029 C 
ATOM      2  C2  ZIN AC000      -0.084   0.014  -0.006  0.00  0.00     0.046 C 
ATOM      3  C3  ZIN AC000       0.763  -0.446   1.182  0.00  0.00     0.029 C 
ENDROOT
BRANCH   2   4
ATOM      4  C4  ZIN AC000      -1.505  -0.449   0.181  0.00  0.00     0.173 C 
ATOM      5  O5  ZIN AC000      -1.802  -1.124   1.144  0.00  0.00    -0.291 OA
BRANCH   4   6
ATOM      6  C6  ZIN AC000      -2.535  -0.082  -0.805  0.00  0.00     0.028 A 
ATOM      7  C11 ZIN AC000      -2.184   0.578  -1.987  0.00  0.00     0.131 A 
ATOM      8  N10 ZIN AC000      -3.105   0.900  -2.870  0.00  0.00    -0.272 NA
ATOM      9  C9  ZIN AC000      -4.382   0.629  -2.678  0.00  0.00     0.116 A 
ATOM     10  C8  ZIN AC000      -4.812  -0.017  -1.532  0.00  0.00     0.020 A 
ATOM     11  C7  ZIN AC000      -3.885  -0.384  -0.573  0.00  0.00     0.018 A 
ENDBRANCH   4   6
ENDBRANCH   2   4
BRANCH   2  12
ATOM     12  C12 ZIN AC000       0.473  -0.574  -1.277  0.00  0.00    -0.025 A 
ATOM     13  C17 ZIN AC000      -0.249  -1.515  -1.988  0.00  0.00     0.124 A 
ATOM     14  N16 ZIN AC000       0.230  -2.031  -3.103  0.00  0.00    -0.273 NA
ATOM     15  C15 ZIN AC000       1.410  -1.682  -3.578  0.00  0.00     0.116 A 
ATOM     16  C14 ZIN AC000       2.190  -0.752  -2.919  0.00  0.00     0.020 A 
ATOM     17  C13 ZIN AC000       1.718  -0.183  -1.745  0.00  0.00     0.011 A 
ENDBRANCH   2  12
TORSDOF 3
