REMARK  2 active torsions:
REMARK  status: ('A' for Active; 'I' for Inactive)
REMARK    1  A    between atoms: C11_11  and  N12_12 
REMARK    2  A    between atoms: N12_12  and  C13_13 
ROOT
ATOM      1 Br1  <0> d          -0.009   0.010  -0.036  0.00  0.00    -0.046 Br
ATOM      2  C2  <0> d          -0.024   1.901  -0.025  0.00  0.00     0.069 A 
ATOM      3  C3  <0> d          -1.243   2.599  -0.021  0.00  0.00     0.104 A 
ATOM      4  N4  <0> d          -2.411   1.946  -0.026  0.00  0.00    -0.256 NA
ATOM      5  C5  <0> d          -3.536   2.624  -0.023  0.00  0.00     0.136 A 
ATOM      6  C6  <0> d          -3.526   4.020  -0.015  0.00  0.00     0.136 A 
ATOM      7  N7  <0> d          -2.392   4.684  -0.010  0.00  0.00    -0.257 NA
ATOM      8  C8  <0> d          -1.233   4.017  -0.013  0.00  0.00     0.086 A 
ATOM      9  C9  <0> d          -0.005   4.702  -0.007  0.00  0.00     0.036 A 
ATOM     10  C10 <0> d           1.161   4.004  -0.010  0.00  0.00     0.034 A 
ATOM     11  C11 <0> d           1.162   2.604  -0.013  0.00  0.00     0.069 A 
ENDROOT
BRANCH  11  12
ATOM     12  N12 <0> d           2.376   1.912  -0.015  0.00  0.00    -0.189 N 
ATOM     13  H22 <0> d           2.418   1.007  -0.360  0.00  0.00     0.184 HD
BRANCH  12  14
ATOM     14  C13 <0> d           3.513   2.517   0.471  0.00  0.00     0.696 A 
ATOM     15  N17 <0> d           4.752   1.942   0.390  0.00  0.00    -0.223 N 
ATOM     16  C16 <0> d           5.729   2.858   1.002  0.00  0.00     0.160 A 
ATOM     17  H27 <0> d           4.954   1.081  -0.008  0.00  0.00     0.177 HD
ATOM     18  C15 <0> d           4.862   4.048   1.458  0.00  0.00     0.189 A 
ATOM     19  N14 <0> d           3.501   3.673   1.050  0.00  0.00    -0.106 NA
ENDBRANCH  12  14
ENDBRANCH  11  12
TORSDOF 2
