REMARK  4 active torsions:
REMARK  status: ('A' for Active; 'I' for Inactive)
REMARK    1  A    between atoms: C11_9  and  O13_10 
REMARK    2  A    between atoms: O13_10  and  C14_11 
REMARK    3  A    between atoms: C14_11  and  C15_12 
REMARK    4  A    between atoms: C14_11  and  C21_18 
ROOT
ATOM      1  C14 ZIN AC000      -2.080  -3.686   2.382  0.00  0.00     0.188 C 
ENDROOT
BRANCH   1   2
ATOM      2  O13 ZIN AC000      -1.081  -2.732   2.018  0.00  0.00    -0.371 OA
BRANCH   2   3
ATOM      3  C11 ZIN AC000      -0.432  -3.016   0.777  0.00  0.00     0.126 C 
ATOM      4  C10 ZIN AC000       0.846  -3.817   1.042  0.00  0.00     0.065 C 
ATOM      5  C8  ZIN AC000       1.839  -2.931   1.810  0.00  0.00     0.190 C 
ATOM      6  N2  ZIN AC000       2.212  -1.794   0.927  0.00  0.00    -0.066 N 
ATOM      7  C7  ZIN AC000       1.072  -2.262   2.979  0.00  0.00     0.035 C 
ATOM      8  C1  ZIN AC000       3.353  -1.057   1.486  0.00  0.00     0.270 C 
ATOM      9  H3  ZIN AC000       2.423  -2.122  -0.004  0.00  0.00     0.280 HD
ATOM     10  C4  ZIN AC000       0.992  -0.943   0.918  0.00  0.00     0.190 C 
ATOM     11  C27 ZIN AC000      -0.061  -1.665   0.063  0.00  0.00     0.065 C 
ATOM     12  C6  ZIN AC000       0.514  -0.951   2.389  0.00  0.00     0.035 C 
ENDBRANCH   2   3
ENDBRANCH   1   2
BRANCH   1  13
ATOM     13  C15 ZIN AC000      -2.243  -3.696   3.880  0.00  0.00    -0.025 A 
ATOM     14  C20 ZIN AC000      -2.422  -4.893   4.548  0.00  0.00     0.010 A 
ATOM     15  C19 ZIN AC000      -2.567  -4.903   5.923  0.00  0.00     0.001 A 
ATOM     16  C18 ZIN AC000      -2.541  -3.715   6.629  0.00  0.00     0.000 A 
ATOM     17  C17 ZIN AC000      -2.366  -2.517   5.960  0.00  0.00     0.001 A 
ATOM     18  C16 ZIN AC000      -2.217  -2.508   4.586  0.00  0.00     0.010 A 
ENDBRANCH   1  13
BRANCH   1  19
ATOM     19  C21 ZIN AC000      -3.390  -3.312   1.737  0.00  0.00    -0.025 A 
ATOM     20  C26 ZIN AC000      -4.232  -4.299   1.260  0.00  0.00     0.010 A 
ATOM     21  C25 ZIN AC000      -5.436  -3.956   0.672  0.00  0.00     0.001 A 
ATOM     22  C24 ZIN AC000      -5.793  -2.626   0.554  0.00  0.00     0.000 A 
ATOM     23  C23 ZIN AC000      -4.949  -1.639   1.027  0.00  0.00     0.001 A 
ATOM     24  C22 ZIN AC000      -3.747  -1.982   1.618  0.00  0.00     0.010 A 
ENDBRANCH   1  19
TORSDOF 4
