REMARK  6 active torsions:
REMARK  status: ('A' for Active; 'I' for Inactive)
REMARK    1  A    between atoms: N5_5  and  C6_6 
REMARK    2  A    between atoms: C6_6  and  C9_8 
REMARK    3  A    between atoms: C9_8  and  O10_9 
REMARK    4  A    between atoms: C9_8  and  C11_10 
REMARK    5  A    between atoms: C9_8  and  C17_16 
REMARK    6  A    between atoms: C11_10  and  N12_11 
ROOT
ATOM      1  C9  ZIN AC000       1.387  -4.540  -1.692  0.00  0.00     0.136 C 
ENDROOT
BRANCH   1   2
ATOM      2  C6  ZIN AC000       0.058  -3.794  -1.564  0.00  0.00     0.259 C 
ATOM      3  C8  ZIN AC000      -1.058  -4.790  -1.241  0.00  0.00     0.046 C 
BRANCH   2   4
ATOM      4  N5  ZIN AC000       0.155  -2.801  -0.486  0.00  0.00     0.096 N 
ATOM      5  C4  ZIN AC000       0.120  -3.450   0.831  0.00  0.00     0.277 C 
ATOM      6  C3  ZIN AC000       0.467  -2.422   1.915  0.00  0.00     0.063 C 
ATOM      7  C2  ZIN AC000      -0.461  -1.236   1.757  0.00  0.00    -0.086 C 
ATOM      8  C1  ZIN AC000      -1.109  -0.742   2.783  0.00  0.00     0.014 C 
ATOM      9  C26 ZIN AC000      -0.620  -0.644   0.372  0.00  0.00     0.063 C 
ATOM     10  C25 ZIN AC000      -0.893  -1.781  -0.613  0.00  0.00     0.277 C 
ENDBRANCH   2   4
ENDBRANCH   1   2
BRANCH   1  11
ATOM     11  O10 ZIN AC000       1.601  -5.336  -0.524  0.00  0.00    -0.381 OA
ATOM     12  H36 ZIN AC000       0.914  -5.999  -0.369  0.00  0.00     0.211 HD
ENDBRANCH   1  11
BRANCH   1  13
ATOM     13  C11 ZIN AC000       2.527  -3.531  -1.837  0.00  0.00     0.197 C 
BRANCH  13  14
ATOM     14  N12 ZIN AC000       3.800  -4.246  -1.957  0.00  0.00    -0.259 N 
ATOM     15  N16 ZIN AC000       4.318  -5.198  -1.065  0.00  0.00    -0.165 NA
ATOM     16  C15 ZIN AC000       5.469  -5.584  -1.550  0.00  0.00     0.256 A 
ATOM     17  N14 ZIN AC000       5.703  -4.925  -2.684  0.00  0.00    -0.234 NA
ATOM     18  C13 ZIN AC000       4.707  -4.116  -2.941  0.00  0.00     0.230 A 
ENDBRANCH  13  14
ENDBRANCH   1  13
BRANCH   1  19
ATOM     19  C17 ZIN AC000       1.348  -5.432  -2.907  0.00  0.00     0.019 A 
ATOM     20  C23 ZIN AC000       1.150  -4.882  -4.162  0.00  0.00     0.128 A 
ATOM     21  C22 ZIN AC000       1.119  -5.700  -5.278  0.00  0.00     0.085 A 
ATOM     22  F24 ZIN AC000       0.999  -3.547  -4.299  0.00  0.00    -0.205 F 
ATOM     23  C20 ZIN AC000       1.275  -7.069  -5.136  0.00  0.00     0.119 A 
ATOM     24  C19 ZIN AC000       1.466  -7.616  -3.879  0.00  0.00     0.043 A 
ATOM     25  F21 ZIN AC000       1.239  -7.869  -6.224  0.00  0.00    -0.206 F 
ATOM     26  C18 ZIN AC000       1.503  -6.798  -2.766  0.00  0.00     0.016 A 
ENDBRANCH   1  19
TORSDOF 6
