REMARK  2 active torsions:
REMARK  status: ('A' for Active; 'I' for Inactive)
REMARK    1  A    between atoms: N1_1  and  C5_5 
REMARK    2  A    between atoms: C5_5  and  C6_6 
ROOT
ATOM      1  C5  <0> d          -0.699   1.479   1.216  0.00  0.00     0.215 C 
ATOM      2  C9  <0> d          -0.321   2.914   1.617  0.00  0.00     0.087 C 
ATOM      3  C10 <0> d          -0.330   2.426   3.075  0.00  0.00     0.176 C 
ATOM      4  F12 <0> d           0.705   2.957   3.851  0.00  0.00    -0.249 F 
ATOM      5  C13 <0> d          -0.032   1.022   2.524  0.00  0.00     0.087 C 
ENDROOT
BRANCH   1   6
ATOM      6  N1  <0> d          -0.012   1.005   0.008  0.00  0.00    -0.060 N 
ATOM      7  H2  <0> d           0.002  -0.004   0.002  0.00  0.00     0.275 HD
ATOM      8  H3  <0> d           0.935   1.354   0.000  0.00  0.00     0.275 HD
ATOM      9  H4  <0> d          -0.500   1.339  -0.810  0.00  0.00     0.275 HD
ENDBRANCH   1   6
BRANCH   1  10
ATOM     10  C6  <0> d          -2.185   1.232   1.179  0.00  0.00     0.210 C 
ATOM     11  O7  <0> d          -2.666   0.537   0.299  0.00  0.00    -0.646 OA
ATOM     12  O8  <0> d          -2.907   1.726   2.028  0.00  0.00    -0.646 OA
ENDBRANCH   1  10
TORSDOF 2
