REMARK  4 active torsions:
REMARK  status: ('A' for Active; 'I' for Inactive)
REMARK    1  A    between atoms: N1_1  and  S2_2 
REMARK    2  A    between atoms: S2_2  and  C5_5 
REMARK    3  A    between atoms: C11_11  and  S12_12 
REMARK    4  A    between atoms: S12_12  and  N13_13 
ROOT
ATOM      1  C5  ZIN AC000      -0.846  -0.529  -1.450  0.00  0.00     0.082 A 
ATOM      2  C6  ZIN AC000      -2.210  -0.747  -1.413  0.00  0.00     0.050 A 
ATOM      3  C7  ZIN AC000      -2.877  -1.159  -2.553  0.00  0.00     0.058 A 
ATOM      4 Cl8  ZIN AC000      -4.591  -1.432  -2.506  0.00  0.00    -0.082 Cl
ATOM      5  C9  ZIN AC000      -2.176  -1.353  -3.731  0.00  0.00     0.079 A 
ATOM      6 Cl10 ZIN AC000      -3.011  -1.870  -5.163  0.00  0.00    -0.081 Cl
ATOM      7  C11 ZIN AC000      -0.811  -1.135  -3.767  0.00  0.00     0.104 A 
ATOM      8  C16 ZIN AC000      -0.147  -0.718  -2.628  0.00  0.00     0.052 A 
ENDROOT
BRANCH   1   9
ATOM      9  S2  ZIN AC000       0.002  -0.004   0.002  0.00  0.00     0.256 S 
ATOM     10  O3  ZIN AC000       1.360  -0.386  -0.166  0.00  0.00    -0.201 OA
ATOM     11  O4  ZIN AC000      -0.792  -0.422   1.104  0.00  0.00    -0.201 OA
BRANCH   9  12
ATOM     12  N1  ZIN AC000      -0.020   1.652   0.011  0.00  0.00    -0.324 N 
ATOM     13  H17 ZIN AC000       0.813   2.148   0.006  0.00  0.00     0.169 HD
ATOM     14  H18 ZIN AC000      -0.867   2.125   0.018  0.00  0.00     0.169 HD
ENDBRANCH   9  12
ENDBRANCH   1   9
BRANCH   7  15
ATOM     15  S12 ZIN AC000       0.082  -1.381  -5.266  0.00  0.00     0.258 S 
ATOM     16  O14 ZIN AC000      -0.642  -0.700  -6.281  0.00  0.00    -0.201 OA
ATOM     17  O15 ZIN AC000       1.445  -1.112  -4.970  0.00  0.00    -0.201 OA
BRANCH  15  18
ATOM     18  N13 ZIN AC000      -0.008  -2.994  -5.631  0.00  0.00    -0.324 N 
ATOM     19  H20 ZIN AC000       0.013  -3.284  -6.556  0.00  0.00     0.169 HD
ATOM     20  H21 ZIN AC000      -0.082  -3.649  -4.919  0.00  0.00     0.169 HD
ENDBRANCH  15  18
ENDBRANCH   7  15
TORSDOF 4
