REMARK  5 active torsions:
REMARK  status: ('A' for Active; 'I' for Inactive)
REMARK    1  A    between atoms: O2_2  and  C3_3 
REMARK    2  A    between atoms: C4_4  and  O5_5 
REMARK    3  A    between atoms: C9_9  and  N10_10 
REMARK    4  A    between atoms: C12_12  and  N13_13 
REMARK       I    between atoms: N16_16  and  C17_17 
REMARK    5  A    between atoms: C17_17  and  C19_19 
ROOT
ATOM      1  C3  ZIN AC000       0.076  -0.333   1.453  0.00  0.00     0.103 A 
ATOM      2  C4  ZIN AC000       0.017  -1.730   1.551  0.00  0.00     0.102 A 
ATOM      3  C7  ZIN AC000       0.637  -2.385   2.576  0.00  0.00     0.057 A 
ATOM      4  C8  ZIN AC000       1.340  -1.655   3.542  0.00  0.00     0.039 A 
ATOM      5  C9  ZIN AC000       2.000  -2.287   4.624  0.00  0.00     0.137 A 
ATOM      6  N11 ZIN AC000       2.645  -1.529   5.498  0.00  0.00    -0.202 NA
ATOM      7  C12 ZIN AC000       2.681  -0.204   5.375  0.00  0.00     0.184 A 
ATOM      8  N32 ZIN AC000       2.084   0.436   4.388  0.00  0.00    -0.330 N 
ATOM      9  H33 ZIN AC000       2.138   1.403   4.340  0.00  0.00     0.168 HD
ATOM     10  C34 ZIN AC000       1.404  -0.242   3.450  0.00  0.00     0.051 A 
ATOM     11  C35 ZIN AC000       0.766   0.408   2.388  0.00  0.00     0.070 A 
ENDROOT
BRANCH   7  12
ATOM     12  N13 ZIN AC000       3.372   0.531   6.321  0.00  0.00    -0.250 NA
ATOM     13  C31 ZIN AC000       3.968  -0.346   7.338  0.00  0.00     0.118 C 
ATOM     14  C30 ZIN AC000       4.566   0.510   8.459  0.00  0.00     0.140 C 
ATOM     15  N16 ZIN AC000       5.490   1.485   7.860  0.00  0.00    -0.348 N 
ATOM     16  C15 ZIN AC000       5.005   2.307   6.741  0.00  0.00     0.140 C 
ATOM     17  C17 ZIN AC000       6.748   1.621   8.324  0.00  0.00     0.251 C 
ATOM     18  C14 ZIN AC000       4.390   1.380   5.688  0.00  0.00     0.118 C 
ATOM     19  O18 ZIN AC000       7.523   2.369   7.766  0.00  0.00    -0.270 OA
BRANCH  17  20
ATOM     20  C19 ZIN AC000       7.193   0.844   9.536  0.00  0.00     0.245 C 
ATOM     21  O29 ZIN AC000       8.401   1.409  10.056  0.00  0.00    -0.331 OA
ATOM     22  C28 ZIN AC000       9.090   0.657  10.958  0.00  0.00     0.103 A 
ATOM     23  C23 ZIN AC000       8.845  -0.706  11.082  0.00  0.00     0.102 A 
ATOM     24  C27 ZIN AC000      10.049   1.261  11.757  0.00  0.00     0.040 A 
ATOM     25  O22 ZIN AC000       7.905  -1.318  10.312  0.00  0.00    -0.345 OA
ATOM     26  C24 ZIN AC000       9.565  -1.455  12.001  0.00  0.00     0.039 A 
ATOM     27  C21 ZIN AC000       7.473  -0.613   9.143  0.00  0.00     0.218 C 
ATOM     28  C25 ZIN AC000      10.521  -0.847  12.793  0.00  0.00     0.003 A 
ATOM     29  C26 ZIN AC000      10.762   0.509  12.672  0.00  0.00     0.003 A 
ENDBRANCH  17  20
ENDBRANCH   7  12
BRANCH   5  30
ATOM     30  N10 ZIN AC000       1.972  -3.659   4.763  0.00  0.00    -0.383 N 
ATOM     31  H43 ZIN AC000       1.497  -4.203   4.116  0.00  0.00     0.157 HD
ATOM     32  H44 ZIN AC000       2.429  -4.080   5.509  0.00  0.00     0.157 HD
ENDBRANCH   5  30
BRANCH   1  33
ATOM     33  O2  ZIN AC000      -0.548   0.296   0.424  0.00  0.00    -0.353 OA
ATOM     34  C1  ZIN AC000      -0.446   1.720   0.376  0.00  0.00     0.210 C 
ENDBRANCH   1  33
BRANCH   2  35
ATOM     35  O5  ZIN AC000      -0.665  -2.441   0.613  0.00  0.00    -0.353 OA
ATOM     36  C6  ZIN AC000      -0.689  -3.862   0.767  0.00  0.00     0.210 C 
ENDBRANCH   2  35
TORSDOF 5
