REMARK  7 active torsions:
REMARK  status: ('A' for Active; 'I' for Inactive)
REMARK    1  A    between atoms: C9_9  and  C10_10 
REMARK    2  A    between atoms: C10_10  and  C11_11 
REMARK    3  A    between atoms: C11_11  and  C12_12 
REMARK    4  A    between atoms: C12_12  and  C13_13 
REMARK    5  A    between atoms: C13_13  and  N14_14 
REMARK    6  A    between atoms: N17_17  and  C18_18 
REMARK    7  A    between atoms: C23_23  and  C24_24 
REMARK       I    between atoms: C24_24  and  N25_25 
ROOT
ATOM      1  N1  <0> d           0.021  -1.141   0.005  0.00  0.00    -0.191 NA
ATOM      2  C2  <0> d           0.009  -0.005   0.023  0.00  0.00     0.099 C 
ATOM      3  C3  <0> d          -0.005   1.427   0.046  0.00  0.00     0.045 A 
ATOM      4  C4  <0> d          -1.226   2.114   0.082  0.00  0.00     0.025 A 
ATOM      5  C5  <0> d          -1.256   3.477   0.104  0.00  0.00     0.032 A 
ATOM      6  C6  <0> d          -0.069   4.206   0.091  0.00  0.00     0.043 A 
ATOM      7  N7  <0> d           0.211   5.552   0.106  0.00  0.00    -0.365 N 
ATOM      8  C8  <0> d           1.565   5.748   0.081  0.00  0.00     0.096 A 
ATOM      9  C9  <0> d           2.199   4.566   0.050  0.00  0.00    -0.030 A 
ATOM     10  C32 <0> d           1.165   3.527   0.055  0.00  0.00    -0.000 A 
ATOM     11  C33 <0> d           1.194   2.135   0.039  0.00  0.00     0.037 A 
ATOM     12  H36 <0> d          -0.454   6.258   0.130  0.00  0.00     0.165 HD
ENDROOT
BRANCH   9  13
ATOM     13  C10 <0> d           3.689   4.348   0.016  0.00  0.00     0.041 C 
BRANCH  13  14
ATOM     14  C11 <0> d           4.147   4.171  -1.433  0.00  0.00     0.006 C 
BRANCH  14  15
ATOM     15  C12 <0> d           5.660   3.950  -1.467  0.00  0.00     0.030 C 
BRANCH  15  16
ATOM     16  C13 <0> d           6.117   3.773  -2.917  0.00  0.00     0.272 C 
BRANCH  16  17
ATOM     17  N14 <0> d           7.571   3.561  -2.949  0.00  0.00     0.091 N 
ATOM     18  C31 <0> d           8.081   3.623  -4.325  0.00  0.00     0.292 C 
ATOM     19  C30 <0> d           9.559   3.220  -4.337  0.00  0.00     0.153 C 
ATOM     20  N17 <0> d          10.280   4.058  -3.368  0.00  0.00    -0.377 N 
ATOM     21  C16 <0> d           9.748   4.154  -2.000  0.00  0.00     0.153 C 
ATOM     22  C15 <0> d           8.263   4.521  -2.080  0.00  0.00     0.292 C 
BRANCH  20  23
ATOM     23  C18 <0> d          11.442   4.745  -3.737  0.00  0.00     0.031 A 
ATOM     24  C29 <0> d          12.038   5.620  -2.847  0.00  0.00     0.043 A 
ATOM     25  C28 <0> d          13.200   6.297  -3.222  0.00  0.00     0.003 A 
ATOM     26  C21 <0> d          13.754   6.098  -4.500  0.00  0.00     0.086 A 
ATOM     27  C27 <0> d          14.075   7.263  -2.557  0.00  0.00     0.057 A 
ATOM     28  C20 <0> d          13.135   5.219  -5.382  0.00  0.00     0.040 A 
ATOM     29  O22 <0> d          14.855   6.872  -4.592  0.00  0.00    -0.304 OA
ATOM     30  C19 <0> d          11.992   4.551  -5.003  0.00  0.00     0.032 A 
ATOM     31  C23 <0> d          15.053   7.563  -3.450  0.00  0.00     0.144 A 
BRANCH  31  32
ATOM     32  C24 <0> d          16.160   8.499  -3.210  0.00  0.00     0.273 C 
ATOM     33  N25 <0> d          17.076   8.721  -4.173  0.00  0.00    -0.364 N 
ATOM     34  H52 <0> d          17.006   8.262  -5.025  0.00  0.00     0.159 HD
ATOM     35  H53 <0> d          17.807   9.339  -4.014  0.00  0.00     0.159 HD
ATOM     36  O26 <0> d          16.248   9.075  -2.142  0.00  0.00    -0.266 OA
ENDBRANCH  31  32
ENDBRANCH  20  23
ENDBRANCH  16  17
ENDBRANCH  15  16
ENDBRANCH  14  15
ENDBRANCH  13  14
ENDBRANCH   9  13
TORSDOF 7
