REMARK  4 active torsions:
REMARK  status: ('A' for Active; 'I' for Inactive)
REMARK    1  A    between atoms: S2_2  and  C3_3 
REMARK    2  A    between atoms: N14_14  and  C15_15 
REMARK    3  A    between atoms: C15_15  and  C16_16 
REMARK    4  A    between atoms: C16_16  and  C17_17 
ROOT
ATOM      1  C3  <0> d           1.151  -0.423  -2.241  0.00  0.00     0.002 A 
ATOM      2  C4  <0> d           1.734   0.408  -3.188  0.00  0.00     0.020 A 
ATOM      3  C5  <0> d           2.503  -0.135  -4.201  0.00  0.00     0.022 A 
ATOM      4  C6  <0> d           2.694  -1.508  -4.277  0.00  0.00     0.032 A 
ATOM      5  S7  <0> d           3.669  -2.170  -5.584  0.00  0.00    -0.086 SA
ATOM      6  C8  <0> d           3.224  -3.873  -5.606  0.00  0.00     0.032 A 
ATOM      7  C9  <0> d           3.512  -4.637  -6.729  0.00  0.00     0.021 A 
ATOM      8  C10 <0> d           3.169  -5.976  -6.765  0.00  0.00     0.002 A 
ATOM      9  C11 <0> d           2.537  -6.556  -5.682  0.00  0.00     0.002 A 
ATOM     10  C12 <0> d           2.247  -5.802  -4.561  0.00  0.00     0.031 A 
ATOM     11  C13 <0> d           2.590  -4.455  -4.513  0.00  0.00     0.052 A 
ATOM     12  N14 <0> d           2.289  -3.727  -3.364  0.00  0.00    -0.345 N 
ATOM     13  C25 <0> d           2.115  -2.346  -3.328  0.00  0.00     0.053 A 
ATOM     14  C26 <0> d           1.346  -1.796  -2.308  0.00  0.00     0.049 A 
ENDROOT
BRANCH  12  15
ATOM     15  C15 <0> d           2.146  -4.466  -2.107  0.00  0.00     0.131 C 
BRANCH  15  16
ATOM     16  C16 <0> d           0.689  -4.902  -1.935  0.00  0.00     0.056 C 
BRANCH  16  17
ATOM     17  C17 <0> d           0.564  -5.785  -0.692  0.00  0.00     0.224 C 
ATOM     18  N23 <0> d          -0.818  -6.267  -0.570  0.00  0.00     0.088 N 
ATOM     19  C22 <0> d          -0.971  -7.155   0.589  0.00  0.00     0.272 C 
ATOM     20  C24 <0> d          -1.252  -6.934  -1.805  0.00  0.00     0.310 C 
ATOM     21  C21 <0> d          -0.647  -6.382   1.870  0.00  0.00     0.030 C 
ATOM     22  C20 <0> d           0.788  -5.854   1.794  0.00  0.00     0.004 C 
ATOM     23  C19 <0> d           0.933  -4.972   0.551  0.00  0.00     0.036 C 
ENDBRANCH  16  17
ENDBRANCH  15  16
ENDBRANCH  12  15
BRANCH   1  24
ATOM     24  S2  <0> d           0.168   0.265  -0.951  0.00  0.00    -0.134 SA
ATOM     25  C1  <0> d           0.222   2.044  -1.301  0.00  0.00     0.095 C 
ENDBRANCH   1  24
TORSDOF 4
