REMARK  14 active torsions:
REMARK  status: ('A' for Active; 'I' for Inactive)
REMARK    1  A    between atoms: C2_2  and  N5_5 
REMARK       I    between atoms: N5_5  and  C6_6 
REMARK    2  A    between atoms: C6_6  and  C8_8 
REMARK    3  A    between atoms: N20_17  and  C21_18 
REMARK    4  A    between atoms: C21_18  and  C22_19 
REMARK    5  A    between atoms: C22_19  and  O24_20 
REMARK    6  A    between atoms: C22_19  and  C25_21 
REMARK    7  A    between atoms: C25_21  and  C27_22 
REMARK    8  A    between atoms: C25_21  and  N34_29 
REMARK    9  A    between atoms: C27_22  and  C28_23 
REMARK       I    between atoms: N34_29  and  C35_30 
REMARK   10  A    between atoms: C35_30  and  C37_32 
REMARK   11  A    between atoms: C37_32  and  C39_33 
REMARK   12  A    between atoms: C37_32  and  N43_37 
REMARK   13  A    between atoms: C39_33  and  C40_34 
REMARK       I    between atoms: C40_34  and  N41_35 
REMARK       I    between atoms: N43_37  and  C44_38 
REMARK   14  A    between atoms: C44_38  and  C46_40 
ROOT
ATOM      1  C25 ZIN AC000       2.322   3.538  -2.410  0.00  0.00     0.119 C 
ENDROOT
BRANCH   1   2
ATOM      2  C22 ZIN AC000       2.786   2.214  -1.800  0.00  0.00     0.169 C 
BRANCH   2   3
ATOM      3  C21 ZIN AC000       3.480   1.373  -2.874  0.00  0.00     0.307 C 
BRANCH   3   4
ATOM      4  N20 ZIN AC000       3.901   0.090  -2.296  0.00  0.00     0.105 N 
ATOM      5  C8  ZIN AC000       4.765  -0.647  -3.226  0.00  0.00     0.314 C 
ATOM      6  C10 ZIN AC000       5.300  -1.909  -2.543  0.00  0.00     0.050 C 
ATOM      7  C11 ZIN AC000       4.120  -2.779  -2.106  0.00  0.00    -0.006 C 
ATOM      8  C17 ZIN AC000       3.222  -1.970  -1.167  0.00  0.00     0.018 C 
ATOM      9  C13 ZIN AC000       4.630  -4.021  -1.374  0.00  0.00     0.005 C 
ATOM     10  C16 ZIN AC000       2.026  -2.826  -0.750  0.00  0.00     0.007 C 
ATOM     11  C19 ZIN AC000       2.738  -0.713  -1.891  0.00  0.00     0.278 C 
ATOM     12  C15 ZIN AC000       2.527  -4.075  -0.021  0.00  0.00     0.000 C 
ATOM     13  C14 ZIN AC000       3.438  -4.881  -0.948  0.00  0.00     0.000 C 
BRANCH   5  14
ATOM     14  C6  ZIN AC000       3.972  -1.035  -4.447  0.00  0.00     0.252 C 
ATOM     15  N5  ZIN AC000       4.571  -1.692  -5.459  0.00  0.00    -0.351 N 
ATOM     16  H65 ZIN AC000       5.514  -1.915  -5.402  0.00  0.00     0.163 HD
ATOM     17  O7  ZIN AC000       2.794  -0.757  -4.518  0.00  0.00    -0.271 OA
BRANCH  15  18
ATOM     18  C2  ZIN AC000       3.800  -2.070  -6.646  0.00  0.00     0.022 C 
ATOM     19  C1  ZIN AC000       3.232  -0.812  -7.307  0.00  0.00     0.037 C 
ATOM     20  C3  ZIN AC000       2.651  -2.994  -6.235  0.00  0.00     0.037 C 
ATOM     21  C4  ZIN AC000       4.711  -2.799  -7.636  0.00  0.00     0.037 C 
ENDBRANCH  15  18
ENDBRANCH   5  14
ENDBRANCH   3   4
ENDBRANCH   2   3
BRANCH   2  22
ATOM     22  O24 ZIN AC000       3.702   2.475  -0.735  0.00  0.00    -0.392 OA
ATOM     23  H80 ZIN AC000       4.495   2.957  -1.007  0.00  0.00     0.210 HD
ENDBRANCH   2  22
ENDBRANCH   1   2
BRANCH   1  24
ATOM     24  C27 ZIN AC000       3.541   4.356  -2.840  0.00  0.00     0.066 C 
BRANCH  24  25
ATOM     25  C28 ZIN AC000       3.084   5.604  -3.551  0.00  0.00    -0.056 A 
ATOM     26  C33 ZIN AC000       2.849   6.761  -2.833  0.00  0.00     0.007 A 
ATOM     27  C32 ZIN AC000       2.433   7.907  -3.486  0.00  0.00     0.001 A 
ATOM     28  C31 ZIN AC000       2.243   7.892  -4.855  0.00  0.00     0.000 A 
ATOM     29  C30 ZIN AC000       2.473   6.733  -5.572  0.00  0.00     0.001 A 
ATOM     30  C29 ZIN AC000       2.893   5.589  -4.920  0.00  0.00     0.007 A 
ENDBRANCH  24  25
ENDBRANCH   1  24
BRANCH   1  31
ATOM     31  N34 ZIN AC000       1.555   4.291  -1.415  0.00  0.00    -0.352 N 
ATOM     32  C35 ZIN AC000       0.643   5.200  -1.814  0.00  0.00     0.241 C 
ATOM     33  O36 ZIN AC000       0.457   5.393  -2.997  0.00  0.00    -0.271 OA
ATOM     34  H88 ZIN AC000       1.703   4.136  -0.469  0.00  0.00     0.163 HD
BRANCH  32  35
ATOM     35  C37 ZIN AC000      -0.146   5.974  -0.791  0.00  0.00     0.185 C 
BRANCH  35  36
ATOM     36  C39 ZIN AC000      -0.948   5.003   0.078  0.00  0.00     0.137 C 
BRANCH  36  37
ATOM     37  C40 ZIN AC000      -1.931   4.252  -0.784  0.00  0.00     0.217 C 
ATOM     38  N41 ZIN AC000      -2.810   3.402  -0.218  0.00  0.00    -0.370 N 
ATOM     39  H91 ZIN AC000      -2.811   3.273   0.743  0.00  0.00     0.159 HD
ATOM     40  H92 ZIN AC000      -3.442   2.919  -0.773  0.00  0.00     0.159 HD
ATOM     41  O42 ZIN AC000      -1.930   4.414  -1.986  0.00  0.00    -0.274 OA
ENDBRANCH  36  37
ENDBRANCH  35  36
BRANCH  35  42
ATOM     42  N43 ZIN AC000      -1.064   6.891  -1.473  0.00  0.00    -0.342 N 
ATOM     43  C44 ZIN AC000      -1.440   8.038  -0.874  0.00  0.00     0.271 C 
ATOM     44  O45 ZIN AC000      -0.951   8.355   0.192  0.00  0.00    -0.266 OA
ATOM     45  H93 ZIN AC000      -1.401   6.671  -2.356  0.00  0.00     0.163 HD
BRANCH  43  46
ATOM     46  C46 ZIN AC000      -2.451   8.912  -1.515  0.00  0.00     0.125 A 
ATOM     47  N55 ZIN AC000      -2.973   8.553  -2.672  0.00  0.00    -0.243 NA
ATOM     48  C54 ZIN AC000      -3.887   9.305  -3.283  0.00  0.00     0.068 A 
ATOM     49  C49 ZIN AC000      -4.310  10.525  -2.693  0.00  0.00    -0.007 A 
ATOM     50  C53 ZIN AC000      -4.444   8.913  -4.516  0.00  0.00     0.032 A 
ATOM     51  C48 ZIN AC000      -3.756  10.920  -1.461  0.00  0.00     0.016 A 
ATOM     52  C50 ZIN AC000      -5.271  11.315  -3.346  0.00  0.00     0.014 A 
ATOM     53  C47 ZIN AC000      -2.827  10.105  -0.881  0.00  0.00     0.038 A 
ATOM     54  C51 ZIN AC000      -5.785  10.901  -4.537  0.00  0.00     0.001 A 
ATOM     55  C52 ZIN AC000      -5.372   9.703  -5.119  0.00  0.00     0.002 A 
ENDBRANCH  43  46
ENDBRANCH  35  42
ENDBRANCH  32  35
ENDBRANCH   1  31
TORSDOF 14
