REMARK  15 active torsions:
REMARK  status: ('A' for Active; 'I' for Inactive)
REMARK    1  A    between atoms: C2_2  and  C3_3 
REMARK    2  A    between atoms: C3_3  and  O5_5 
REMARK    3  A    between atoms: O5_5  and  C6_6 
REMARK    4  A    between atoms: C6_6  and  O8_7 
REMARK    5  A    between atoms: C6_6  and  C40_37 
REMARK    6  A    between atoms: O8_7  and  P9_8 
REMARK    7  A    between atoms: P9_8  and  C11_10 
REMARK    8  A    between atoms: P9_8  and  C21_20 
REMARK    9  A    between atoms: C11_10  and  C12_11 
REMARK   10  A    between atoms: C12_11  and  C13_12 
REMARK   11  A    between atoms: C13_12  and  C14_13 
REMARK   12  A    between atoms: C14_13  and  C15_14 
REMARK   13  A    between atoms: C21_20  and  C22_21 
REMARK       I    between atoms: C22_21  and  N24_23 
REMARK   14  A    between atoms: C26_25  and  C28_26 
REMARK   15  A    between atoms: C35_33  and  C37_34 
ROOT
ATOM      1  P9  ZIN AC000       1.050  -1.004   5.060  0.00  0.00     0.208 P 
ATOM      2  O10 ZIN AC000       1.741  -1.971   5.941  0.00  0.00    -0.291 OA
ENDROOT
BRANCH   1   3
ATOM      3  O8  ZIN AC000       0.721  -1.704   3.648  0.00  0.00    -0.301 OA
BRANCH   3   4
ATOM      4  C6  ZIN AC000       1.727  -2.277   2.811  0.00  0.00     0.280 C 
BRANCH   4   5
ATOM      5  O5  ZIN AC000       1.391  -2.038   1.418  0.00  0.00    -0.289 OA
BRANCH   5   6
ATOM      6  C3  ZIN AC000       1.483  -0.774   0.977  0.00  0.00     0.260 C 
ATOM      7  O4  ZIN AC000       1.834   0.104   1.728  0.00  0.00    -0.265 OA
BRANCH   6   8
ATOM      8  C2  ZIN AC000       1.150  -0.451  -0.457  0.00  0.00     0.107 C 
ATOM      9  C1  ZIN AC000       1.337   1.049  -0.698  0.00  0.00     0.015 C 
ENDBRANCH   6   8
ENDBRANCH   5   6
ENDBRANCH   4   5
BRANCH   4  10
ATOM     10  C40 ZIN AC000       1.806  -3.783   3.066  0.00  0.00     0.034 C 
ATOM     11  C41 ZIN AC000       2.882  -4.397   2.167  0.00  0.00     0.014 C 
ATOM     12  C42 ZIN AC000       2.162  -4.034   4.532  0.00  0.00     0.014 C 
ENDBRANCH   4  10
ENDBRANCH   3   4
ENDBRANCH   1   3
BRANCH   1  13
ATOM     13  C11 ZIN AC000      -0.503  -0.467   5.849  0.00  0.00     0.102 C 
BRANCH  13  14
ATOM     14  C12 ZIN AC000      -1.351  -1.693   6.193  0.00  0.00     0.010 C 
BRANCH  14  15
ATOM     15  C13 ZIN AC000      -2.655  -1.242   6.854  0.00  0.00     0.005 C 
BRANCH  15  16
ATOM     16  C14 ZIN AC000      -3.503  -2.468   7.198  0.00  0.00     0.038 C 
BRANCH  16  17
ATOM     17  C15 ZIN AC000      -4.787  -2.023   7.850  0.00  0.00    -0.058 A 
ATOM     18  C20 ZIN AC000      -5.901  -1.759   7.074  0.00  0.00     0.007 A 
ATOM     19  C19 ZIN AC000      -7.080  -1.355   7.673  0.00  0.00     0.001 A 
ATOM     20  C18 ZIN AC000      -7.143  -1.208   9.046  0.00  0.00     0.000 A 
ATOM     21  C17 ZIN AC000      -6.028  -1.468   9.821  0.00  0.00     0.001 A 
ATOM     22  C16 ZIN AC000      -4.851  -1.875   9.223  0.00  0.00     0.007 A 
ENDBRANCH  16  17
ENDBRANCH  15  16
ENDBRANCH  14  15
ENDBRANCH  13  14
ENDBRANCH   1  13
BRANCH   1  23
ATOM     23  C21 ZIN AC000       2.124   0.443   4.786  0.00  0.00     0.204 C 
BRANCH  23  24
ATOM     24  C22 ZIN AC000       3.482  -0.020   4.323  0.00  0.00     0.229 C 
ATOM     25  O23 ZIN AC000       3.723  -0.100   3.137  0.00  0.00    -0.273 OA
ATOM     26  N24 ZIN AC000       4.427  -0.344   5.227  0.00  0.00    -0.337 N 
ATOM     27  C35 ZIN AC000       4.270  -0.293   6.688  0.00  0.00     0.188 C 
ATOM     28  C25 ZIN AC000       5.793  -0.804   4.914  0.00  0.00     0.132 C 
ATOM     29  C34 ZIN AC000       5.614  -0.728   7.309  0.00  0.00     0.043 C 
ATOM     30  C26 ZIN AC000       6.628  -0.447   6.169  0.00  0.00     0.010 C 
BRANCH  27  31
ATOM     31  C37 ZIN AC000       3.930   1.108   7.128  0.00  0.00     0.196 C 
ATOM     32  O38 ZIN AC000       3.970   2.025   6.325  0.00  0.00    -0.646 OA
ATOM     33  O39 ZIN AC000       3.617   1.324   8.286  0.00  0.00    -0.646 OA
ENDBRANCH  27  31
BRANCH  30  34
ATOM     34  C28 ZIN AC000       7.854  -1.355   6.288  0.00  0.00    -0.009 C 
ATOM     35  C33 ZIN AC000       8.632  -0.996   7.556  0.00  0.00     0.005 C 
ATOM     36  C32 ZIN AC000       9.858  -1.904   7.676  0.00  0.00     0.000 C 
ATOM     37  C31 ZIN AC000      10.757  -1.711   6.453  0.00  0.00     0.000 C 
ATOM     38  C30 ZIN AC000       9.979  -2.069   5.185  0.00  0.00     0.000 C 
ATOM     39  C29 ZIN AC000       8.753  -1.161   5.066  0.00  0.00     0.005 C 
ENDBRANCH  30  34
ENDBRANCH  23  24
ENDBRANCH   1  23
TORSDOF 15
