REMARK  6 active torsions:
REMARK  status: ('A' for Active; 'I' for Inactive)
REMARK    1  A    between atoms: C7_6  and  O8_7 
REMARK    2  A    between atoms: O8_7  and  C9_8 
REMARK    3  A    between atoms: C9_8  and  C11_10 
REMARK    4  A    between atoms: C11_10  and  O12_11 
REMARK    5  A    between atoms: C11_10  and  C13_12 
REMARK    6  A    between atoms: C11_10  and  C18_17 
ROOT
ATOM      1  C9  ZIN AC000       2.176  -4.591   0.793  0.00  0.00     0.305 C 
ATOM      2  O10 ZIN AC000       1.179  -5.038   1.309  0.00  0.00    -0.261 OA
ENDROOT
BRANCH   1   3
ATOM      3  O8  ZIN AC000       2.118  -3.436   0.111  0.00  0.00    -0.313 OA
BRANCH   3   4
ATOM      4  C7  ZIN AC000       0.820  -2.776   0.035  0.00  0.00     0.136 C 
ATOM      5  C6  ZIN AC000       0.711  -1.995  -1.258  0.00  0.00     0.069 C 
ATOM      6  C4  ZIN AC000       0.860  -0.488  -1.106  0.00  0.00     0.224 C 
ATOM      7  N2  ZIN AC000       0.002  -0.004   0.002  0.00  0.00    -0.061 N 
ATOM      8  C29 ZIN AC000       2.298  -0.170  -0.631  0.00  0.00     0.184 A 
ATOM      9  C1  ZIN AC000      -0.018   1.473   0.010  0.00  0.00     0.273 C 
ATOM     10  C24 ZIN AC000       0.718  -0.503   1.201  0.00  0.00     0.224 C 
ATOM     11  C3  ZIN AC000      -1.367  -0.513  -0.086  0.00  0.00     0.273 C 
ATOM     12  C23 ZIN AC000       0.551  -2.012   1.314  0.00  0.00     0.069 C 
ATOM     13  C26 ZIN AC000       2.203  -0.180   0.911  0.00  0.00     0.184 A 
ATOM     14  O28 ZIN AC000       2.979  -1.125   0.178  0.00  0.00    -0.371 OA
ENDBRANCH   3   4
ENDBRANCH   1   3
BRANCH   1  15
ATOM     15  C11 ZIN AC000       3.484  -5.329   0.914  0.00  0.00     0.213 C 
BRANCH  15  16
ATOM     16  O12 ZIN AC000       4.556  -4.389   1.004  0.00  0.00    -0.370 OA
ATOM     17  H40 ZIN AC000       4.493  -3.793   1.763  0.00  0.00     0.212 HD
ENDBRANCH  15  16
BRANCH  15  18
ATOM     18  C13 ZIN AC000       3.463  -6.188   2.153  0.00  0.00     0.032 A 
ATOM     19  S17 ZIN AC000       2.904  -7.854   2.223  0.00  0.00    -0.102 SA
ATOM     20  C16 ZIN AC000       3.260  -7.932   3.943  0.00  0.00     0.050 A 
ATOM     21  C15 ZIN AC000       3.748  -6.761   4.353  0.00  0.00     0.008 A 
ATOM     22  C14 ZIN AC000       3.860  -5.798   3.365  0.00  0.00     0.019 A 
ENDBRANCH  15  18
BRANCH  15  23
ATOM     23  C18 ZIN AC000       3.682  -6.202  -0.298  0.00  0.00     0.032 A 
ATOM     24  S22 ZIN AC000       3.144  -7.870  -0.446  0.00  0.00    -0.102 SA
ATOM     25  C21 ZIN AC000       3.797  -7.968  -2.076  0.00  0.00     0.050 A 
ATOM     26  C20 ZIN AC000       4.361  -6.804  -2.402  0.00  0.00     0.008 A 
ATOM     27  C19 ZIN AC000       4.298  -5.830  -1.421  0.00  0.00     0.019 A 
ENDBRANCH  15  23
ENDBRANCH   1  15
TORSDOF 6
