REMARK  6 active torsions:
REMARK  status: ('A' for Active; 'I' for Inactive)
REMARK    1  A    between atoms: C2_2  and  C3_3 
REMARK    2  A    between atoms: C4_4  and  C5_5 
REMARK    3  A    between atoms: C14_14  and  C15_15 
REMARK    4  A    between atoms: C16_16  and  C17_17 
REMARK    5  A    between atoms: C19_19  and  C20_20 
REMARK    6  A    between atoms: C20_20  and  O21_21 
ROOT
ATOM      1  C1  ZIN AC000       0.183   1.242  -0.126  0.00  0.00     0.048 C 
ATOM      2  C2  ZIN AC000       0.382  -0.249  -0.034  0.00  0.00    -0.062 C 
ATOM      3  C14 ZIN AC000       0.590  -0.978  -1.163  0.00  0.00     0.007 C 
ENDROOT
BRANCH   2   4
ATOM      4  C3  ZIN AC000       0.352  -0.888   1.222  0.00  0.00     0.007 C 
ATOM      5  C4  ZIN AC000       0.144  -0.161   2.348  0.00  0.00     0.009 C 
BRANCH   5   6
ATOM      6  C5  ZIN AC000      -0.005  -0.835   3.636  0.00  0.00    -0.048 C 
ATOM      7  C11 ZIN AC000       0.937  -0.463   4.743  0.00  0.00    -0.020 C 
ATOM      8  C10 ZIN AC000       0.374  -0.927   6.090  0.00  0.00     0.014 C 
ATOM      9  C12 ZIN AC000       2.297  -1.123   4.506  0.00  0.00     0.020 C 
ATOM     10  C13 ZIN AC000       1.111   1.057   4.763  0.00  0.00     0.020 C 
ATOM     11  C9  ZIN AC000      -0.025  -2.403   5.964  0.00  0.00     0.005 C 
ATOM     12  C8  ZIN AC000      -1.228  -2.502   5.024  0.00  0.00     0.034 C 
ATOM     13  C6  ZIN AC000      -0.959  -1.741   3.758  0.00  0.00    -0.077 C 
ATOM     14  C7  ZIN AC000      -1.825  -2.028   2.559  0.00  0.00     0.044 C 
ENDBRANCH   5   6
ENDBRANCH   2   4
BRANCH   3  15
ATOM     15  C15 ZIN AC000       0.620  -0.340  -2.419  0.00  0.00     0.001 C 
ATOM     16  C16 ZIN AC000       0.828  -1.067  -3.545  0.00  0.00     0.006 C 
BRANCH  16  17
ATOM     17  C17 ZIN AC000       0.860  -0.404  -4.847  0.00  0.00    -0.064 C 
ATOM     18  C18 ZIN AC000       0.661   1.087  -4.939  0.00  0.00     0.048 C 
ATOM     19  C19 ZIN AC000       1.064  -1.120  -5.956  0.00  0.00     0.005 C 
BRANCH  19  20
ATOM     20  C20 ZIN AC000       1.097  -0.437  -7.299  0.00  0.00     0.192 C 
BRANCH  20  21
ATOM     21  O21 ZIN AC000       2.203  -0.930  -8.057  0.00  0.00    -0.397 OA
ATOM     22  H51 ZIN AC000       2.286  -0.533  -8.935  0.00  0.00     0.209 HD
ENDBRANCH  20  21
ENDBRANCH  19  20
ENDBRANCH  16  17
ENDBRANCH   3  15
TORSDOF 6
