REMARK  22 active torsions:
REMARK  status: ('A' for Active; 'I' for Inactive)
REMARK    1  A    between atoms: O2_2  and  C3_3 
REMARK    2  A    between atoms: C3_3  and  C4_4 
REMARK    3  A    between atoms: C4_4  and  N5_5 
REMARK       I    between atoms: N5_5  and  C6_6 
REMARK    4  A    between atoms: C6_6  and  C8_8 
REMARK    5  A    between atoms: C8_8  and  N9_9 
REMARK    6  A    between atoms: N9_9  and  C10_10 
REMARK    7  A    between atoms: N9_9  and  C32_32 
REMARK    8  A    between atoms: C10_10  and  C11_11 
REMARK    9  A    between atoms: C11_11  and  N12_12 
REMARK   10  A    between atoms: N12_12  and  C13_13 
REMARK   11  A    between atoms: N12_12  and  C28_28 
REMARK   12  A    between atoms: C13_13  and  C14_14 
REMARK   13  A    between atoms: C14_14  and  N15_15 
REMARK   14  A    between atoms: N15_15  and  C16_16 
REMARK   15  A    between atoms: N15_15  and  C20_20 
REMARK   16  A    between atoms: C16_16  and  C17_17 
REMARK   17  A    between atoms: C20_20  and  C21_21 
REMARK       I    between atoms: C21_21  and  N23_23 
REMARK   18  A    between atoms: N23_23  and  C24_24 
REMARK   19  A    between atoms: C24_24  and  C25_25 
REMARK   20  A    between atoms: C25_25  and  O26_26 
REMARK   21  A    between atoms: C28_28  and  C29_29 
REMARK   22  A    between atoms: C32_32  and  C33_33 
ROOT
ATOM      1  N12 ZIN AC000      -4.359  -7.998  -0.438  0.00  0.00     0.102 N 
ENDROOT
BRANCH   1   2
ATOM      2  C11 ZIN AC000      -2.898  -7.935  -0.579  0.00  0.00     0.303 C 
BRANCH   2   3
ATOM      3  C10 ZIN AC000      -2.523  -6.761  -1.486  0.00  0.00     0.303 C 
BRANCH   3   4
ATOM      4  N9  ZIN AC000      -1.074  -6.773  -1.728  0.00  0.00     0.108 N 
BRANCH   4   5
ATOM      5  C8  ZIN AC000      -0.340  -6.286  -0.553  0.00  0.00     0.375 C 
BRANCH   5   6
ATOM      6  C6  ZIN AC000       1.133  -6.539  -0.741  0.00  0.00     0.246 C 
ATOM      7  N5  ZIN AC000       2.008  -6.172   0.217  0.00  0.00    -0.358 N 
ATOM      8  H43 ZIN AC000       1.688  -5.745   1.027  0.00  0.00     0.162 HD
ATOM      9  O7  ZIN AC000       1.533  -7.074  -1.754  0.00  0.00    -0.272 OA
BRANCH   7  10
ATOM     10  C4  ZIN AC000       3.440  -6.419   0.035  0.00  0.00     0.148 C 
BRANCH  10  11
ATOM     11  C3  ZIN AC000       4.205  -5.911   1.259  0.00  0.00     0.186 C 
BRANCH  11  12
ATOM     12  O2  ZIN AC000       3.832  -6.678   2.405  0.00  0.00    -0.394 OA
ATOM     13  C1  ZIN AC000       4.493  -6.283   3.609  0.00  0.00     0.201 C 
ENDBRANCH  11  12
ENDBRANCH  10  11
ENDBRANCH   7  10
ENDBRANCH   5   6
ENDBRANCH   4   5
BRANCH   4  14
ATOM     14  C32 ZIN AC000      -0.734  -5.990  -2.924  0.00  0.00     0.385 C 
BRANCH  14  15
ATOM     15  C33 ZIN AC000      -1.208  -6.720  -4.154  0.00  0.00     0.202 C 
ATOM     16  O34 ZIN AC000      -1.685  -7.838  -4.054  0.00  0.00    -0.647 OA
ATOM     17  O35 ZIN AC000      -1.114  -6.193  -5.250  0.00  0.00    -0.647 OA
ENDBRANCH  14  15
ENDBRANCH   4  14
ENDBRANCH   3   4
ENDBRANCH   2   3
ENDBRANCH   1   2
BRANCH   1  18
ATOM     18  C13 ZIN AC000      -4.770  -9.242   0.226  0.00  0.00     0.303 C 
BRANCH  18  19
ATOM     19  C14 ZIN AC000      -4.662 -10.407  -0.760  0.00  0.00     0.303 C 
BRANCH  19  20
ATOM     20  N15 ZIN AC000      -5.168 -11.633  -0.128  0.00  0.00     0.108 N 
BRANCH  20  21
ATOM     21  C16 ZIN AC000      -6.609 -11.532   0.138  0.00  0.00     0.385 C 
BRANCH  21  22
ATOM     22  C17 ZIN AC000      -7.347 -11.339  -1.162  0.00  0.00     0.202 C 
ATOM     23  O18 ZIN AC000      -6.739 -11.368  -2.219  0.00  0.00    -0.647 OA
ATOM     24  O19 ZIN AC000      -8.552 -11.155  -1.158  0.00  0.00    -0.647 OA
ENDBRANCH  21  22
ENDBRANCH  20  21
BRANCH  20  25
ATOM     25  C20 ZIN AC000      -4.865 -12.812  -0.949  0.00  0.00     0.375 C 
BRANCH  25  26
ATOM     26  C21 ZIN AC000      -4.999 -14.057  -0.110  0.00  0.00     0.246 C 
ATOM     27  O22 ZIN AC000      -5.316 -13.969   1.058  0.00  0.00    -0.272 OA
ATOM     28  N23 ZIN AC000      -4.767 -15.267  -0.656  0.00  0.00    -0.358 N 
ATOM     29  H58 ZIN AC000      -4.514 -15.336  -1.590  0.00  0.00     0.162 HD
BRANCH  28  30
ATOM     30  C24 ZIN AC000      -4.898 -16.476   0.160  0.00  0.00     0.148 C 
BRANCH  30  31
ATOM     31  C25 ZIN AC000      -4.582 -17.705  -0.696  0.00  0.00     0.186 C 
BRANCH  31  32
ATOM     32  O26 ZIN AC000      -3.212 -17.666  -1.098  0.00  0.00    -0.394 OA
ATOM     33  C27 ZIN AC000      -2.811 -18.775  -1.906  0.00  0.00     0.201 C 
ENDBRANCH  31  32
ENDBRANCH  30  31
ENDBRANCH  28  30
ENDBRANCH  25  26
ENDBRANCH  20  25
ENDBRANCH  19  20
ENDBRANCH  18  19
ENDBRANCH   1  18
BRANCH   1  34
ATOM     34  C28 ZIN AC000      -4.870  -6.824   0.281  0.00  0.00     0.385 C 
BRANCH  34  35
ATOM     35  C29 ZIN AC000      -6.359  -6.716   0.074  0.00  0.00     0.202 C 
ATOM     36  O30 ZIN AC000      -6.940  -7.543  -0.608  0.00  0.00    -0.647 OA
ATOM     37  O31 ZIN AC000      -6.981  -5.802   0.587  0.00  0.00    -0.647 OA
ENDBRANCH  34  35
ENDBRANCH   1  34
TORSDOF 22
