REMARK  4 active torsions:
REMARK  status: ('A' for Active; 'I' for Inactive)
REMARK    1  A    between atoms: C2_2  and  C3_3 
REMARK    2  A    between atoms: C11_11  and  C12_12 
REMARK    3  A    between atoms: C11_11  and  C14_14 
REMARK    4  A    between atoms: C14_14  and  C15_15 
ROOT
ATOM      1  C3  ZIN AC000      -1.165  -2.047  -0.350  0.00  0.00    -0.031 A 
ATOM      2  C4  ZIN AC000      -1.992  -1.755  -1.429  0.00  0.00     0.049 A 
ATOM      3  N5  ZIN AC000      -1.754  -1.299  -2.708  0.00  0.00    -0.355 N 
ATOM      4  C6  ZIN AC000      -2.931  -1.176  -3.384  0.00  0.00     0.052 A 
ATOM      5  C7  ZIN AC000      -3.954  -1.539  -2.582  0.00  0.00    -0.018 A 
ATOM      6  C8  ZIN AC000      -5.397  -1.521  -3.015  0.00  0.00     0.068 C 
ATOM      7  C9  ZIN AC000      -5.490  -0.680  -4.297  0.00  0.00     0.174 C 
ATOM      8  O10 ZIN AC000      -4.465  -1.084  -5.208  0.00  0.00    -0.373 OA
ATOM      9  C11 ZIN AC000      -3.139  -0.714  -4.808  0.00  0.00     0.112 C 
ATOM     10  C18 ZIN AC000      -3.386  -1.924  -1.297  0.00  0.00    -0.001 A 
ATOM     11  C19 ZIN AC000      -3.916  -2.381  -0.089  0.00  0.00     0.014 A 
ATOM     12  C20 ZIN AC000      -3.084  -2.662   0.957  0.00  0.00     0.002 A 
ATOM     13  C21 ZIN AC000      -1.712  -2.501   0.830  0.00  0.00     0.009 A 
ATOM     14  H27 ZIN AC000      -0.878  -1.096  -3.073  0.00  0.00     0.166 HD
ENDROOT
BRANCH   9  15
ATOM     15  C12 ZIN AC000      -2.981   0.806  -4.887  0.00  0.00     0.040 C 
ATOM     16  C13 ZIN AC000      -3.228   1.270  -6.324  0.00  0.00     0.008 C 
ENDBRANCH   9  15
BRANCH   9  17
ATOM     17  C14 ZIN AC000      -2.116  -1.389  -5.724  0.00  0.00     0.157 C 
BRANCH  17  18
ATOM     18  C15 ZIN AC000      -2.284  -2.884  -5.649  0.00  0.00     0.175 C 
ATOM     19  O16 ZIN AC000      -3.209  -3.363  -5.015  0.00  0.00    -0.648 OA
ATOM     20  O17 ZIN AC000      -1.496  -3.616  -6.223  0.00  0.00    -0.648 OA
ENDBRANCH  17  18
ENDBRANCH   9  17
BRANCH   1  21
ATOM     21  C2  ZIN AC000       0.327  -1.872  -0.474  0.00  0.00     0.036 C 
ATOM     22  C1  ZIN AC000       0.697  -0.419  -0.168  0.00  0.00     0.010 C 
ENDBRANCH   1  21
TORSDOF 4
