REMARK  4 active torsions:
REMARK  status: ('A' for Active; 'I' for Inactive)
REMARK    1  A    between atoms: C2_2  and  C3_3 
REMARK    2  A    between atoms: C11_11  and  C12_12 
REMARK    3  A    between atoms: C11_11  and  C14_14 
REMARK    4  A    between atoms: C14_14  and  C15_15 
ROOT
ATOM      1  C3  ZIN AC000      -1.077   0.275  -0.176  0.00  0.00    -0.031 A 
ATOM      2  C4  ZIN AC000      -1.782  -0.108  -1.311  0.00  0.00     0.049 A 
ATOM      3  N5  ZIN AC000      -1.578   0.083  -2.662  0.00  0.00    -0.355 N 
ATOM      4  C6  ZIN AC000      -2.582  -0.505  -3.371  0.00  0.00     0.052 A 
ATOM      5  C7  ZIN AC000      -3.456  -1.085  -2.522  0.00  0.00    -0.018 A 
ATOM      6  C8  ZIN AC000      -4.688  -1.826  -2.975  0.00  0.00     0.068 C 
ATOM      7  C9  ZIN AC000      -4.944  -1.454  -4.443  0.00  0.00     0.174 C 
ATOM      8  O10 ZIN AC000      -3.723  -1.557  -5.181  0.00  0.00    -0.373 OA
ATOM      9  C11 ZIN AC000      -2.757  -0.545  -4.872  0.00  0.00     0.112 C 
ATOM     10  C18 ZIN AC000      -2.972  -0.850  -1.169  0.00  0.00    -0.001 A 
ATOM     11  C19 ZIN AC000      -3.426  -1.192   0.107  0.00  0.00     0.014 A 
ATOM     12  C20 ZIN AC000      -2.716  -0.806   1.209  0.00  0.00     0.002 A 
ATOM     13  C21 ZIN AC000      -1.542  -0.079   1.072  0.00  0.00     0.009 A 
ATOM     14  H27 ZIN AC000      -0.830   0.565  -3.049  0.00  0.00     0.166 HD
ENDROOT
BRANCH   9  15
ATOM     15  C12 ZIN AC000      -1.422  -0.883  -5.538  0.00  0.00     0.040 C 
ATOM     16  C13 ZIN AC000      -0.924  -2.236  -5.025  0.00  0.00     0.008 C 
ENDBRANCH   9  15
BRANCH   9  17
ATOM     17  C14 ZIN AC000      -3.255   0.813  -5.371  0.00  0.00     0.157 C 
BRANCH  17  18
ATOM     18  C15 ZIN AC000      -3.524   0.737  -6.851  0.00  0.00     0.175 C 
ATOM     19  O16 ZIN AC000      -3.449  -0.334  -7.430  0.00  0.00    -0.648 OA
ATOM     20  O17 ZIN AC000      -3.817   1.745  -7.471  0.00  0.00    -0.648 OA
ENDBRANCH  17  18
ENDBRANCH   9  17
BRANCH   1  21
ATOM     21  C2  ZIN AC000       0.197   1.068  -0.311  0.00  0.00     0.036 C 
ATOM     22  C1  ZIN AC000      -0.138   2.557  -0.417  0.00  0.00     0.010 C 
ENDBRANCH   1  21
TORSDOF 4
