REMARK  5 active torsions:
REMARK  status: ('A' for Active; 'I' for Inactive)
REMARK    1  A    between atoms: O2_2  and  C3_3 
REMARK    2  A    between atoms: C5_4  and  N7_5 
REMARK       I    between atoms: N7_5  and  C9_7 
REMARK    3  A    between atoms: C9_7  and  C11_9 
REMARK    4  A    between atoms: C18_16  and  N40_37 
REMARK    5  A    between atoms: C21_18  and  N23_20 
ROOT
ATOM      1  C3  ZIN AC000      -2.315  -2.828   0.284  0.00  0.00     0.199 C 
ATOM      2  C5  ZIN AC000      -2.328  -2.242   1.701  0.00  0.00     0.124 C 
ATOM      3  C17 ZIN AC000      -3.033  -3.244   2.623  0.00  0.00     0.082 C 
ATOM      4  C18 ZIN AC000      -2.277  -4.566   2.603  0.00  0.00     0.233 C 
ATOM      5  O20 ZIN AC000      -2.023  -5.026   1.295  0.00  0.00    -0.333 OA
ATOM      6  C21 ZIN AC000      -1.568  -4.157   0.294  0.00  0.00     0.168 C 
ATOM      7  C22 ZIN AC000      -1.823  -4.843  -1.050  0.00  0.00     0.074 C 
ENDROOT
BRANCH   2   8
ATOM      8  N7  ZIN AC000      -0.954  -2.026   2.160  0.00  0.00    -0.345 N 
ATOM      9  C8  ZIN AC000       0.160  -2.132   1.215  0.00  0.00     0.153 C 
ATOM     10  C9  ZIN AC000      -0.715  -1.730   3.453  0.00  0.00     0.253 C 
ATOM     11  O10 ZIN AC000       0.362  -2.000   3.949  0.00  0.00    -0.267 OA
BRANCH  10  12
ATOM     12  C11 ZIN AC000      -1.761  -1.077   4.269  0.00  0.00     0.032 A 
ATOM     13  C16 ZIN AC000      -1.730  -1.178   5.660  0.00  0.00     0.017 A 
ATOM     14  C15 ZIN AC000      -2.706  -0.561   6.415  0.00  0.00     0.001 A 
ATOM     15  C14 ZIN AC000      -3.721   0.146   5.795  0.00  0.00     0.000 A 
ATOM     16  C13 ZIN AC000      -3.761   0.245   4.416  0.00  0.00     0.001 A 
ATOM     17  C12 ZIN AC000      -2.787  -0.362   3.649  0.00  0.00     0.017 A 
ENDBRANCH  10  12
ENDBRANCH   2   8
BRANCH   1  18
ATOM     18  O2  ZIN AC000      -1.659  -1.919  -0.602  0.00  0.00    -0.384 OA
ATOM     19  C1  ZIN AC000      -2.535  -0.970  -1.214  0.00  0.00     0.202 C 
ENDBRANCH   1  18
BRANCH   6  20
ATOM     20  N23 ZIN AC000      -0.126  -3.916   0.374  0.00  0.00    -0.308 N 
ATOM     21  C31 ZIN AC000       0.607  -3.930   1.551  0.00  0.00     0.077 A 
ATOM     22  C30 ZIN AC000       1.954  -3.659   1.265  0.00  0.00     0.015 A 
ATOM     23  C32 ZIN AC000       0.205  -4.160   2.872  0.00  0.00     0.077 A 
ATOM     24  C25 ZIN AC000       2.025  -3.479  -0.187  0.00  0.00     0.004 A 
ATOM     25  C42 ZIN AC000       2.885  -3.611   2.297  0.00  0.00    -0.010 A 
ATOM     26  C24 ZIN AC000       0.714  -3.650  -0.681  0.00  0.00     0.049 A 
ATOM     27  C26 ZIN AC000       3.095  -3.196  -1.036  0.00  0.00     0.014 A 
ATOM     28  C29 ZIN AC000       0.450  -3.542  -2.046  0.00  0.00     0.030 A 
ATOM     29  C28 ZIN AC000       1.524  -3.262  -2.875  0.00  0.00     0.002 A 
ATOM     30  C27 ZIN AC000       2.808  -3.093  -2.387  0.00  0.00     0.001 A 
ATOM     31  C41 ZIN AC000       2.498  -3.837   3.613  0.00  0.00     0.054 A 
ATOM     32  C43 ZIN AC000       4.370  -3.343   2.327  0.00  0.00     0.163 A 
ATOM     33  C33 ZIN AC000       1.143  -4.119   3.906  0.00  0.00     0.022 A 
ATOM     34  C45 ZIN AC000       3.687  -3.720   4.473  0.00  0.00     0.253 A 
ATOM     35  C34 ZIN AC000       0.405  -4.405   5.133  0.00  0.00     0.004 A 
ATOM     36  C39 ZIN AC000      -0.946  -4.594   4.759  0.00  0.00     0.048 A 
ATOM     37  C35 ZIN AC000       0.814  -4.504   6.464  0.00  0.00     0.014 A 
ATOM     38  C38 ZIN AC000      -1.914  -4.885   5.719  0.00  0.00     0.030 A 
ATOM     39  N40 ZIN AC000      -1.050  -4.470   3.397  0.00  0.00    -0.316 N 
ATOM     40  C37 ZIN AC000      -1.489  -4.981   7.034  0.00  0.00     0.002 A 
ATOM     41  C36 ZIN AC000      -0.167  -4.797   7.397  0.00  0.00     0.001 A 
ATOM     42  N44 ZIN AC000       4.773  -3.435   3.735  0.00  0.00    -0.353 N 
ATOM     43  O46 ZIN AC000       3.686  -3.862   5.681  0.00  0.00    -0.268 OA
ATOM     44  H73 ZIN AC000       5.673  -3.312   4.076  0.00  0.00     0.163 HD
ENDBRANCH   6  20
TORSDOF 5
