REMARK  1 active torsions:
REMARK  status: ('A' for Active; 'I' for Inactive)
REMARK    1  A    between atoms: N17_17  and  C18_18 
ROOT
ATOM      1  C1  ZIN AC000      -0.018   1.503   0.010  0.00  0.00     0.050 C 
ATOM      2  C2  ZIN AC000       0.002  -0.004   0.002  0.00  0.00    -0.030 A 
ATOM      3  C3  ZIN AC000       0.006  -0.705  -1.195  0.00  0.00     0.028 A 
ATOM      4  C4  ZIN AC000       0.028  -2.085  -1.169  0.00  0.00     0.119 A 
ATOM      5  N5  ZIN AC000       0.062  -2.740  -0.024  0.00  0.00    -0.241 NA
ATOM      6  C6  ZIN AC000       0.069  -2.111   1.143  0.00  0.00     0.159 A 
ATOM      7  C7  ZIN AC000       0.023  -0.721   1.195  0.00  0.00     0.087 A 
ATOM      8  N8  ZIN AC000      -0.057  -0.031   2.402  0.00  0.00    -0.319 N 
ATOM      9  C9  ZIN AC000       0.587  -0.316   3.523  0.00  0.00     0.260 C 
ATOM     10  O10 ZIN AC000       0.402   0.420   4.473  0.00  0.00    -0.267 OA
ATOM     11  C11 ZIN AC000       1.504  -1.443   3.717  0.00  0.00     0.078 A 
ATOM     12  C12 ZIN AC000       2.667  -1.278   4.479  0.00  0.00     0.022 A 
ATOM     13  C13 ZIN AC000       3.488  -2.375   4.673  0.00  0.00     0.020 A 
ATOM     14  C14 ZIN AC000       3.138  -3.593   4.118  0.00  0.00     0.119 A 
ATOM     15  N15 ZIN AC000       2.045  -3.724   3.392  0.00  0.00    -0.242 NA
ATOM     16  C16 ZIN AC000       1.237  -2.700   3.155  0.00  0.00     0.147 A 
ATOM     17  N17 ZIN AC000       0.154  -2.863   2.315  0.00  0.00    -0.309 N 
ATOM     18  H26 ZIN AC000      -0.646   0.740   2.423  0.00  0.00     0.169 HD
ENDROOT
BRANCH  17  19
ATOM     19  C18 ZIN AC000      -0.904  -3.819   2.651  0.00  0.00     0.093 A 
ATOM     20  C20 ZIN AC000      -1.662  -3.603   3.962  0.00  0.00     0.028 A 
ATOM     21  C19 ZIN AC000      -0.662  -4.754   3.837  0.00  0.00     0.028 A 
ENDBRANCH  17  19
TORSDOF 1
