REMARK  0 active torsions:
REMARK  status: ('A' for Active; 'I' for Inactive)
REMARK       I    between atoms: N1_1  and  C2_2 
REMARK       I    between atoms: C2_2  and  N3_3 
ROOT
ATOM      1  N1  <0> d          -0.016   1.337   0.009  0.00  0.00    -0.235 N 
ATOM      2  C2  <0> d           0.002  -0.004   0.002  0.00  0.00     0.663 C 
ATOM      3  N3  <0> d           1.172  -0.659  -0.013  0.00  0.00    -0.235 N 
ATOM      4  N4  <0> d          -1.150  -0.690   0.009  0.00  0.00    -0.235 N 
ATOM      5  H5  <0> d          -1.137  -1.660   0.004  0.00  0.00     0.174 HD
ATOM      6  H6  <0> d          -1.996  -0.217   0.020  0.00  0.00     0.174 HD
ATOM      7  H7  <0> d           0.817   1.833   0.004  0.00  0.00     0.174 HD
ATOM      8  H8  <0> d          -0.863   1.810   0.016  0.00  0.00     0.174 HD
ATOM      9  H9  <0> d           2.006  -0.162  -0.018  0.00  0.00     0.174 HD
ATOM     10  H10 <0> d           1.185  -1.629  -0.018  0.00  0.00     0.174 HD
ENDROOT
TORSDOF 0
