REMARK  2 active torsions:
REMARK  status: ('A' for Active; 'I' for Inactive)
REMARK    1  A    between atoms: C2_2  and  N4_3 
REMARK    2  A    between atoms: C2_2  and  C8_7 
ROOT
ATOM      1  C8  <0> d           0.718  -0.497  -1.257  0.00  0.00    -0.012 C 
ATOM      2  C9  <0> d           2.154   0.032  -1.268  0.00  0.00     0.016 C 
ATOM      3  C10 <0> d           2.870  -0.461  -2.526  0.00  0.00    -0.013 C 
ATOM      4  C11 <0> d           2.130   0.045  -3.766  0.00  0.00     0.009 C 
ATOM      5  C12 <0> d           0.694  -0.484  -3.755  0.00  0.00    -0.013 C 
ATOM      6  C13 <0> d           0.715  -2.014  -3.764  0.00  0.00     0.009 C 
ATOM      7  C14 <0> d           1.455  -2.521  -2.524  0.00  0.00    -0.013 C 
ATOM      8  C15 <0> d           2.890  -1.991  -2.535  0.00  0.00     0.009 C 
ATOM      9  C16 <0> d           0.739  -2.027  -1.265  0.00  0.00     0.016 C 
ATOM     10  C17 <0> d          -0.022   0.009  -2.496  0.00  0.00     0.016 C 
ENDROOT
BRANCH   1  11
ATOM     11  C2  <0> d           0.002  -0.004   0.002  0.00  0.00     0.188 C 
ATOM     12  C1  <0> d          -0.019   1.526   0.010  0.00  0.00     0.040 C 
BRANCH  11  13
ATOM     13  N4  <0> d          -1.376  -0.512   0.012  0.00  0.00    -0.075 N 
ATOM     14  H5  <0> d          -1.864  -0.178  -0.805  0.00  0.00     0.274 HD
ATOM     15  H6  <0> d          -1.362  -1.521   0.007  0.00  0.00     0.274 HD
ATOM     16  H7  <0> d          -1.848  -0.187   0.843  0.00  0.00     0.274 HD
ENDBRANCH  11  13
ENDBRANCH   1  11
TORSDOF 2
