REMARK  2 active torsions:
REMARK  status: ('A' for Active; 'I' for Inactive)
REMARK    1  A    between atoms: C3_3  and  O4_4 
REMARK    2  A    between atoms: C25_21  and  C26_22 
ROOT
ATOM      1  C1  ZIN AC000      -0.062  -1.097   0.131  0.00  0.00     0.015 C 
ATOM      2  C2  ZIN AC000      -0.061   0.075   0.055  0.00  0.00    -0.078 C 
ATOM      3  C3  ZIN AC000      -0.060   1.544  -0.040  0.00  0.00     0.128 C 
ATOM      4  C5  ZIN AC000      -0.660   1.994  -1.394  0.00  0.00     0.052 C 
ATOM      5  C6  ZIN AC000       0.483   2.706  -2.165  0.00  0.00     0.010 C 
ATOM      6  C7  ZIN AC000       1.750   2.108  -1.539  0.00  0.00     0.003 C 
ATOM      7  C9  ZIN AC000       3.005   2.943  -1.692  0.00  0.00    -0.000 C 
ATOM      8  C11 ZIN AC000       3.357   3.152  -3.164  0.00  0.00     0.010 C 
ATOM      9  C12 ZIN AC000       4.583   4.068  -3.260  0.00  0.00     0.034 C 
ATOM     10  C13 ZIN AC000       5.705   3.472  -2.428  0.00  0.00    -0.079 C 
ATOM     11  C14 ZIN AC000       6.876   3.343  -2.979  0.00  0.00    -0.024 C 
ATOM     12  C15 ZIN AC000       8.063   2.762  -2.267  0.00  0.00     0.027 C 
ATOM     13  C16 ZIN AC000       7.891   2.967  -0.759  0.00  0.00     0.004 C 
ATOM     14  C17 ZIN AC000       6.556   2.353  -0.338  0.00  0.00     0.010 C 
ATOM     15  C18 ZIN AC000       5.400   3.069  -1.013  0.00  0.00     0.023 C 
ATOM     16  C20 ZIN AC000       4.152   2.187  -0.999  0.00  0.00     0.026 C 
ATOM     17  C22 ZIN AC000       3.763   1.846   0.416  0.00  0.00    -0.083 C 
ATOM     18  C23 ZIN AC000       4.593   2.075   1.404  0.00  0.00     0.015 C 
ATOM     19  C24 ZIN AC000       2.396   1.234   0.688  0.00  0.00     0.047 C 
ATOM     20  C25 ZIN AC000       1.373   2.072  -0.033  0.00  0.00     0.009 C 
ENDROOT
BRANCH   3  21
ATOM     21  O4  ZIN AC000      -0.801   2.109   1.044  0.00  0.00    -0.377 OA
ATOM     22  H29 ZIN AC000      -1.724   1.825   1.080  0.00  0.00     0.211 HD
ENDBRANCH   3  21
BRANCH  20  23
ATOM     23  C26 ZIN AC000       1.409   3.507   0.498  0.00  0.00     0.010 C 
ATOM     24  C27 ZIN AC000       1.252   3.492   2.020  0.00  0.00     0.006 C 
ENDBRANCH  20  23
TORSDOF 2
