REMARK  6 active torsions:
REMARK  status: ('A' for Active; 'I' for Inactive)
REMARK    1  A    between atoms: C7_6  and  O9_7 
REMARK    2  A    between atoms: O9_7  and  C10_8 
REMARK    3  A    between atoms: C10_8  and  C12_10 
REMARK    4  A    between atoms: C12_10  and  O13_11 
REMARK    5  A    between atoms: C12_10  and  C14_12 
REMARK    6  A    between atoms: C12_10  and  C19_17 
ROOT
ATOM      1  C10 <0> d           3.187  -3.611   0.394  0.00  0.00     0.305 C 
ATOM      2  O11 <0> d           2.593  -4.574   0.817  0.00  0.00    -0.261 OA
ENDROOT
BRANCH   1   3
ATOM      3  O9  <0> d           2.508  -2.586  -0.144  0.00  0.00    -0.313 OA
BRANCH   3   4
ATOM      4  C7  <0> d           1.061  -2.702  -0.184  0.00  0.00     0.136 C 
ATOM      5  C6  <0> d           0.521  -1.932  -1.392  0.00  0.00     0.069 C 
ATOM      6  C4  <0> d           0.788  -0.432  -1.186  0.00  0.00     0.224 C 
ATOM      7  N2  <0> d           0.002  -0.004   0.002  0.00  0.00    -0.061 N 
ATOM      8  C30 <0> d           2.261  -0.256  -0.751  0.00  0.00     0.184 A 
ATOM      9  C1  <0> d          -0.021   1.461   0.106  0.00  0.00     0.273 C 
ATOM     10  C25 <0> d           0.748  -0.599   1.143  0.00  0.00     0.224 C 
ATOM     11  C3  <0> d          -1.365  -0.539  -0.058  0.00  0.00     0.273 C 
ATOM     12  C24 <0> d           0.469  -2.124   1.105  0.00  0.00     0.069 C 
ATOM     13  C27 <0> d           2.243  -0.383   0.812  0.00  0.00     0.184 A 
ATOM     14  O29 <0> d           2.617   0.838   0.172  0.00  0.00    -0.371 OA
ENDBRANCH   3   4
ENDBRANCH   1   3
BRANCH   1  15
ATOM     15  C12 <0> d           4.691  -3.561   0.469  0.00  0.00     0.213 C 
BRANCH  15  16
ATOM     16  O13 <0> d           5.112  -2.217   0.710  0.00  0.00    -0.370 OA
ATOM     17  H40 <0> d           4.772  -1.840   1.533  0.00  0.00     0.212 HD
ENDBRANCH  15  16
BRANCH  15  18
ATOM     18  C14 <0> d           5.168  -4.445   1.593  0.00  0.00     0.032 A 
ATOM     19  S18 <0> d           5.570  -6.151   1.440  0.00  0.00    -0.102 SA
ATOM     20  C17 <0> d           5.975  -6.239   3.150  0.00  0.00     0.050 A 
ATOM     21  C16 <0> d           5.788  -5.045   3.715  0.00  0.00     0.008 A 
ATOM     22  C15 <0> d           5.343  -4.056   2.856  0.00  0.00     0.019 A 
ENDBRANCH  15  18
BRANCH  15  23
ATOM     23  C19 <0> d           5.276  -4.045  -0.833  0.00  0.00     0.032 A 
ATOM     24  S23 <0> d           5.689  -5.714  -1.201  0.00  0.00    -0.102 SA
ATOM     25  C22 <0> d           6.239  -5.255  -2.808  0.00  0.00     0.050 A 
ATOM     26  C21 <0> d           6.096  -3.939  -2.970  0.00  0.00     0.008 A 
ATOM     27  C20 <0> d           5.565  -3.271  -1.881  0.00  0.00     0.019 A 
ENDBRANCH  15  23
ENDBRANCH   1  15
TORSDOF 6
