REMARK  6 active torsions:
REMARK  status: ('A' for Active; 'I' for Inactive)
REMARK    1  A    between atoms: N2_2  and  S3_3 
REMARK    2  A    between atoms: S3_3  and  C6_6 
REMARK    3  A    between atoms: C6_6  and  C7_7 
REMARK    4  A    between atoms: C13_13  and  C14_14 
REMARK    5  A    between atoms: C14_14  and  C15_15 
REMARK    6  A    between atoms: C15_15  and  N16_16 
ROOT
ATOM      1  C7  ZIN AC000       3.241  -1.062  -2.232  0.00  0.00    -0.042 A 
ATOM      2  C8  ZIN AC000       3.774  -2.325  -2.016  0.00  0.00     0.010 A 
ATOM      3  C9  ZIN AC000       4.478  -2.969  -3.010  0.00  0.00     0.031 A 
ATOM      4  C10 ZIN AC000       4.658  -2.350  -4.242  0.00  0.00     0.043 A 
ATOM      5  N11 ZIN AC000       5.295  -2.721  -5.405  0.00  0.00    -0.365 N 
ATOM      6  C12 ZIN AC000       5.174  -1.727  -6.338  0.00  0.00     0.096 A 
ATOM      7  C13 ZIN AC000       4.473  -0.703  -5.828  0.00  0.00    -0.029 A 
ATOM      8  C20 ZIN AC000       4.115  -1.070  -4.456  0.00  0.00    -0.001 A 
ATOM      9  C21 ZIN AC000       3.401  -0.437  -3.437  0.00  0.00     0.022 A 
ATOM     10  H30 ZIN AC000       5.760  -3.561  -5.542  0.00  0.00     0.165 HD
ENDROOT
BRANCH   1  11
ATOM     11  C6  ZIN AC000       2.474  -0.376  -1.131  0.00  0.00     0.201 C 
BRANCH  11  12
ATOM     12  S3  ZIN AC000       0.718  -0.816  -1.251  0.00  0.00     0.230 S 
ATOM     13  O4  ZIN AC000       0.525  -2.188  -0.936  0.00  0.00    -0.206 OA
ATOM     14  O5  ZIN AC000       0.140  -0.243  -2.416  0.00  0.00    -0.206 OA
BRANCH  12  15
ATOM     15  N2  ZIN AC000       0.002  -0.004   0.002  0.00  0.00    -0.324 N 
ATOM     16  C1  ZIN AC000      -0.018   1.461   0.010  0.00  0.00     0.159 C 
ATOM     17  H25 ZIN AC000      -0.404  -0.499   0.731  0.00  0.00     0.171 HD
ENDBRANCH  12  15
ENDBRANCH  11  12
ENDBRANCH   1  11
BRANCH   7  18
ATOM     18  C14 ZIN AC000       4.121   0.582  -6.533  0.00  0.00     0.068 C 
BRANCH  18  19
ATOM     19  C15 ZIN AC000       5.159   1.653  -6.191  0.00  0.00     0.238 C 
BRANCH  19  20
ATOM     20  N16 ZIN AC000       4.815   2.905  -6.879  0.00  0.00    -0.079 N 
ATOM     21  H17 ZIN AC000       4.727   2.731  -7.869  0.00  0.00     0.278 HD
ATOM     22  C18 ZIN AC000       3.542   3.417  -6.356  0.00  0.00     0.269 C 
ATOM     23  C19 ZIN AC000       5.874   3.896  -6.648  0.00  0.00     0.269 C 
ENDBRANCH  19  20
ENDBRANCH  18  19
ENDBRANCH   7  18
TORSDOF 6
