REMARK  6 active torsions:
REMARK  status: ('A' for Active; 'I' for Inactive)
REMARK    1  A    between atoms: N1_1  and  C5_5 
REMARK    2  A    between atoms: C5_5  and  C7_6 
REMARK    3  A    between atoms: C5_5  and  C26_25 
REMARK    4  A    between atoms: C7_6  and  C8_7 
REMARK    5  A    between atoms: C12_11  and  O13_12 
REMARK    6  A    between atoms: O13_12  and  C14_13 
ROOT
ATOM      1  C8  ZIN AC000      -0.045  -0.532   2.512  0.00  0.00    -0.053 A 
ATOM      2  C9  ZIN AC000      -1.098  -1.139   3.170  0.00  0.00     0.028 A 
ATOM      3  C10 ZIN AC000      -1.179  -2.518   3.223  0.00  0.00     0.042 A 
ATOM      4  I11 ZIN AC000      -2.776  -3.437   4.220  0.00  0.00    -0.042 I 
ATOM      5  C12 ZIN AC000      -0.202  -3.293   2.615  0.00  0.00     0.109 A 
ATOM      6  C23 ZIN AC000       0.855  -2.680   1.955  0.00  0.00     0.042 A 
ATOM      7  I24 ZIN AC000       2.333  -3.846   1.034  0.00  0.00    -0.042 I 
ATOM      8  C25 ZIN AC000       0.928  -1.302   1.901  0.00  0.00     0.028 A 
ENDROOT
BRANCH   5   9
ATOM      9  O13 ZIN AC000      -0.279  -4.649   2.665  0.00  0.00    -0.308 OA
BRANCH   9  10
ATOM     10  C14 ZIN AC000      -0.950  -5.287   1.670  0.00  0.00     0.078 A 
ATOM     11  C22 ZIN AC000      -1.054  -6.670   1.680  0.00  0.00     0.058 A 
ATOM     12  C20 ZIN AC000      -1.742  -7.319   0.672  0.00  0.00     0.046 A 
ATOM     13  C18 ZIN AC000      -2.318  -6.587  -0.356  0.00  0.00     0.140 A 
ATOM     14  I21 ZIN AC000      -1.906  -9.407   0.692  0.00  0.00    -0.041 I 
ATOM     15  C16 ZIN AC000      -2.208  -5.204  -0.370  0.00  0.00     0.046 A 
ATOM     16  O19 ZIN AC000      -2.989  -7.226  -1.352  0.00  0.00    -0.189 OA
ATOM     17  C15 ZIN AC000      -1.526  -4.556   0.642  0.00  0.00     0.058 A 
ATOM     18  I17 ZIN AC000      -3.077  -4.100  -1.923  0.00  0.00    -0.041 I 
ENDBRANCH   9  10
ENDBRANCH   5   9
BRANCH   1  19
ATOM     19  C7  ZIN AC000       0.041   0.972   2.456  0.00  0.00     0.082 C 
BRANCH  19  20
ATOM     20  C5  ZIN AC000      -0.699   1.479   1.216  0.00  0.00     0.287 C 
BRANCH  20  21
ATOM     21  N1  ZIN AC000      -0.012   1.005   0.008  0.00  0.00    -0.065 N 
ATOM     22  H2  ZIN AC000       0.002  -0.004   0.002  0.00  0.00     0.275 HD
ATOM     23  H3  ZIN AC000       0.935   1.354   0.000  0.00  0.00     0.275 HD
ATOM     24  H4  ZIN AC000      -0.500   1.339  -0.810  0.00  0.00     0.275 HD
ENDBRANCH  20  21
BRANCH  20  25
ATOM     25  C26 ZIN AC000      -0.720   2.985   1.224  0.00  0.00     0.204 C 
ATOM     26  O27 ZIN AC000      -0.209   3.607   0.308  0.00  0.00    -0.646 OA
ATOM     27  O28 ZIN AC000      -1.247   3.583   2.147  0.00  0.00    -0.646 OA
ENDBRANCH  20  25
ENDBRANCH  19  20
ENDBRANCH   1  19
TORSDOF 6
