REMARK  2 active torsions:
REMARK  status: ('A' for Active; 'I' for Inactive)
REMARK    1  A    between atoms: C2_2  and  N3_3 
REMARK    2  A    between atoms: N3_3  and  C6_6 
ROOT
ATOM      1  C6  ZIN AC000      -1.357  -1.910   0.005  0.00  0.00     0.138 A 
ATOM      2  C7  ZIN AC000      -0.150  -2.585  -0.005  0.00  0.00     0.037 A 
ATOM      3  C8  ZIN AC000      -0.128  -3.967  -0.012  0.00  0.00     0.005 A 
ATOM      4  C9  ZIN AC000      -1.312  -4.678  -0.011  0.00  0.00     0.040 A 
ATOM      5  C10 ZIN AC000      -2.525  -4.004  -0.001  0.00  0.00     0.109 A 
ATOM      6  O11 ZIN AC000      -3.692  -4.701   0.001  0.00  0.00    -0.192 OA
ATOM      7  C12 ZIN AC000      -2.545  -2.617   0.012  0.00  0.00     0.077 A 
ENDROOT
BRANCH   1   8
ATOM      8  N3  ZIN AC000      -1.376  -0.512   0.012  0.00  0.00    -0.045 N 
ATOM      9  C4  ZIN AC000      -2.064  -0.039   1.221  0.00  0.00     0.279 C 
ATOM     10  C5  ZIN AC000      -2.087  -0.026  -1.178  0.00  0.00     0.279 C 
BRANCH   8  11
ATOM     11  C2  ZIN AC000       0.002  -0.004   0.002  0.00  0.00     0.238 C 
ATOM     12  C1  ZIN AC000      -0.019   1.526   0.010  0.00  0.00     0.035 C 
ENDBRANCH   8  11
ENDBRANCH   1   8
TORSDOF 2
