REMARK  3 active torsions:
REMARK  status: ('A' for Active; 'I' for Inactive)
REMARK    1  A    between atoms: C6_6  and  N8_7 
REMARK    2  A    between atoms: C10_9  and  C11_10 
REMARK    3  A    between atoms: C11_10  and  C12_11 
ROOT
ATOM      1  N8  <0> d           0.462  -4.252   0.982  0.00  0.00    -0.229 N 
ATOM      2  N9  <0> d          -0.721  -4.685   1.581  0.00  0.00    -0.173 NA
ATOM      3  C10 <0> d          -0.858  -5.875   2.085  0.00  0.00     0.070 A 
ATOM      4  C19 <0> d           0.256  -6.822   2.037  0.00  0.00     0.006 A 
ATOM      5  C20 <0> d           0.150  -8.110   2.567  0.00  0.00     0.014 A 
ATOM      6  C21 <0> d           1.228  -8.963   2.497  0.00  0.00     0.001 A 
ATOM      7  C22 <0> d           2.418  -8.559   1.905  0.00  0.00     0.001 A 
ATOM      8  C23 <0> d           2.545  -7.293   1.376  0.00  0.00     0.018 A 
ATOM      9  C24 <0> d           1.467  -6.412   1.435  0.00  0.00     0.046 A 
ATOM     10  C25 <0> d           1.543  -5.053   0.884  0.00  0.00     0.275 A 
ATOM     11  O26 <0> d           2.564  -4.655   0.352  0.00  0.00    -0.266 OA
ENDROOT
BRANCH   1  12
ATOM     12  C6  <0> d           0.530  -2.893   0.439  0.00  0.00     0.115 C 
ATOM     13  C5  <0> d          -0.519  -2.722  -0.626  0.00  0.00     0.029 C 
ATOM     14  C4  <0> d          -0.090  -1.752  -1.746  0.00  0.00     0.032 C 
ATOM     15  C3  <0> d           0.630  -0.506  -1.196  0.00  0.00     0.272 C 
ATOM     16  N2  <0> d           0.002  -0.004   0.002  0.00  0.00     0.084 N 
ATOM     17  C1  <0> d          -0.018   1.465   0.010  0.00  0.00     0.309 C 
ATOM     18  C28 <0> d           0.711  -0.531   1.188  0.00  0.00     0.274 C 
ATOM     19  C27 <0> d           0.269  -1.869   1.565  0.00  0.00     0.057 C 
ENDBRANCH   1  12
BRANCH   3  20
ATOM     20  C11 <0> d          -2.164  -6.279   2.719  0.00  0.00     0.100 C 
BRANCH  20  21
ATOM     21  C12 <0> d          -3.138  -5.131   2.639  0.00  0.00    -0.052 A 
ATOM     22  C18 <0> d          -3.973  -5.009   1.544  0.00  0.00     0.009 A 
ATOM     23  C17 <0> d          -4.870  -3.959   1.472  0.00  0.00     0.024 A 
ATOM     24  C15 <0> d          -4.924  -3.026   2.491  0.00  0.00     0.034 A 
ATOM     25  C14 <0> d          -4.084  -3.146   3.584  0.00  0.00     0.024 A 
ATOM     26 Cl16 <0> d          -6.045  -1.703   2.399  0.00  0.00    -0.084 Cl
ATOM     27  C13 <0> d          -3.192  -4.199   3.658  0.00  0.00     0.009 A 
ENDBRANCH  20  21
ENDBRANCH   3  20
TORSDOF 3
