REMARK  8 active torsions:
REMARK  status: ('A' for Active; 'I' for Inactive)
REMARK    1  A    between atoms: N1_1  and  C2_2 
REMARK    2  A    between atoms: N8_8  and  C9_9 
REMARK    3  A    between atoms: C9_9  and  C10_10 
REMARK    4  A    between atoms: C10_10  and  C11_11 
REMARK    5  A    between atoms: C11_11  and  C12_12 
REMARK    6  A    between atoms: C11_11  and  C14_14 
REMARK    7  A    between atoms: C12_12  and  O13_13 
REMARK    8  A    between atoms: C14_14  and  O15_15 
ROOT
ATOM      1  C2  ZIN AC000       0.002  -0.004   0.002  0.00  0.00     0.703 A 
ATOM      2  N3  ZIN AC000      -1.138  -0.658   0.004  0.00  0.00    -0.044 NA
ATOM      3  C4  ZIN AC000      -1.169  -1.996  -0.003  0.00  0.00     0.184 A 
ATOM      4  C5  ZIN AC000       0.031  -2.716  -0.013  0.00  0.00     0.173 A 
ATOM      5  N6  ZIN AC000      -0.291  -4.033  -0.018  0.00  0.00    -0.234 NA
ATOM      6  C7  ZIN AC000      -1.585  -4.160  -0.013  0.00  0.00     0.212 A 
ATOM      7  N8  ZIN AC000      -2.171  -2.927  -0.003  0.00  0.00    -0.324 N 
ATOM      8  C16 ZIN AC000       1.251  -2.000  -0.015  0.00  0.00     0.292 A 
ATOM      9  O17 ZIN AC000       2.320  -2.587  -0.023  0.00  0.00    -0.265 OA
ATOM     10  N18 ZIN AC000       1.202  -0.650  -0.013  0.00  0.00    -0.152 N 
ATOM     11  H33 ZIN AC000       2.026  -0.137  -0.014  0.00  0.00     0.187 HD
ENDROOT
BRANCH   7  12
ATOM     12  C9  ZIN AC000      -3.610  -2.652   0.005  0.00  0.00     0.132 C 
BRANCH  12  13
ATOM     13  C10 ZIN AC000      -4.094  -2.424  -1.428  0.00  0.00     0.029 C 
BRANCH  13  14
ATOM     14  C11 ZIN AC000      -5.597  -2.136  -1.419  0.00  0.00     0.034 C 
BRANCH  14  15
ATOM     15  C12 ZIN AC000      -5.859  -0.817  -0.689  0.00  0.00     0.170 C 
BRANCH  15  16
ATOM     16  O13 ZIN AC000      -7.268  -0.606  -0.579  0.00  0.00    -0.400 OA
ATOM     17  H29 ZIN AC000      -7.509   0.213  -0.125  0.00  0.00     0.209 HD
ENDBRANCH  15  16
ENDBRANCH  14  15
BRANCH  14  18
ATOM     18  C14 ZIN AC000      -6.104  -2.032  -2.859  0.00  0.00     0.170 C 
BRANCH  18  19
ATOM     19  O15 ZIN AC000      -7.525  -1.879  -2.853  0.00  0.00    -0.400 OA
ATOM     20  H32 ZIN AC000      -7.917  -1.806  -3.734  0.00  0.00     0.209 HD
ENDBRANCH  18  19
ENDBRANCH  14  18
ENDBRANCH  13  14
ENDBRANCH  12  13
ENDBRANCH   7  12
BRANCH   1  21
ATOM     21  N1  ZIN AC000      -0.017   1.368   0.010  0.00  0.00    -0.233 N 
ATOM     22  H19 ZIN AC000       0.817   1.864   0.004  0.00  0.00     0.174 HD
ATOM     23  H20 ZIN AC000      -0.863   1.842   0.016  0.00  0.00     0.174 HD
ENDBRANCH   1  21
TORSDOF 8
