REMARK  5 active torsions:
REMARK  status: ('A' for Active; 'I' for Inactive)
REMARK    1  A    between atoms: C4_4  and  C6_5 
REMARK    2  A    between atoms: C6_5  and  O7_6 
REMARK    3  A    between atoms: C8_7  and  O10_8 
REMARK    4  A    between atoms: C11_9  and  O13_10 
REMARK    5  A    between atoms: C14_11  and  O16_12 
ROOT
ATOM      1  O1  <0> d           0.002  -0.004   0.002  0.00  0.00    -0.262 OA
ATOM      2  C2  <0> d          -0.014   1.204   0.009  0.00  0.00     0.291 C 
ATOM      3  O3  <0> d          -1.181   1.882   0.029  0.00  0.00    -0.309 OA
ATOM      4  C4  <0> d          -1.293   2.912   1.052  0.00  0.00     0.186 C 
ATOM      5  C8  <0> d          -0.094   3.857   0.948  0.00  0.00     0.181 C 
ATOM      6  C11 <0> d           1.201   3.054   1.105  0.00  0.00     0.188 C 
ATOM      7  C14 <0> d           1.272   2.000   0.001  0.00  0.00     0.248 C 
ENDROOT
BRANCH   4   8
ATOM      8  C6  <0> d          -2.587   3.700   0.843  0.00  0.00     0.199 C 
BRANCH   8   9
ATOM      9  O7  <0> d          -3.709   2.839   1.049  0.00  0.00    -0.398 OA
ATOM     10  H19 <0> d          -4.565   3.273   0.933  0.00  0.00     0.209 HD
ENDBRANCH   8   9
ENDBRANCH   4   8
BRANCH   5  11
ATOM     11  O10 <0> d          -0.173   4.843   1.980  0.00  0.00    -0.390 OA
ATOM     12  H20 <0> d           0.557   5.478   1.974  0.00  0.00     0.210 HD
ENDBRANCH   5  11
BRANCH   6  13
ATOM     13  O13 <0> d           2.324   3.933   1.006  0.00  0.00    -0.390 OA
ATOM     14  H21 <0> d           3.179   3.490   1.097  0.00  0.00     0.210 HD
ENDBRANCH   6  13
BRANCH   7  15
ATOM     15  O16 <0> d           2.381   1.130   0.236  0.00  0.00    -0.383 OA
ATOM     16  H22 <0> d           2.485   0.436  -0.429  0.00  0.00     0.210 HD
ENDBRANCH   7  15
TORSDOF 5
