REMARK  4 active torsions:
REMARK  status: ('A' for Active; 'I' for Inactive)
REMARK    1  A    between atoms: C2_2  and  C4_3 
REMARK    2  A    between atoms: C2_2  and  C7_6 
REMARK    3  A    between atoms: C11_10  and  O12_11 
REMARK    4  A    between atoms: O12_11  and  C13_12 
ROOT
ATOM      1  C7  ZIN AC000      -1.882   0.232  -0.510  0.00  0.00    -0.042 A 
ATOM      2  C8  ZIN AC000      -2.693   0.471   0.584  0.00  0.00     0.008 A 
ATOM      3  C9  ZIN AC000      -3.810  -0.314   0.804  0.00  0.00     0.003 A 
ATOM      4  C10 ZIN AC000      -4.118  -1.339  -0.068  0.00  0.00     0.037 A 
ATOM      5  C11 ZIN AC000      -3.305  -1.582  -1.167  0.00  0.00     0.076 A 
ATOM      6  C19 ZIN AC000      -2.188  -0.790  -1.388  0.00  0.00     0.045 A 
ENDROOT
BRANCH   5   7
ATOM      7  O12 ZIN AC000      -3.606  -2.590  -2.027  0.00  0.00    -0.311 OA
BRANCH   7   8
ATOM      8  C13 ZIN AC000      -2.776  -2.796  -3.083  0.00  0.00     0.076 A 
ATOM      9  C18 ZIN AC000      -3.009  -2.147  -4.287  0.00  0.00     0.037 A 
ATOM     10  C17 ZIN AC000      -2.160  -2.354  -5.357  0.00  0.00     0.003 A 
ATOM     11  C16 ZIN AC000      -1.087  -3.216  -5.233  0.00  0.00     0.000 A 
ATOM     12  C15 ZIN AC000      -0.856  -3.869  -4.036  0.00  0.00     0.003 A 
ATOM     13  C14 ZIN AC000      -1.698  -3.661  -2.961  0.00  0.00     0.037 A 
ENDBRANCH   7   8
ENDBRANCH   5   7
BRANCH   1  14
ATOM     14  C2  ZIN AC000      -0.665   1.089  -0.747  0.00  0.00     0.115 C 
ATOM     15  C1  ZIN AC000      -1.094   2.549  -0.910  0.00  0.00     0.026 C 
BRANCH  14  16
ATOM     16  C4  ZIN AC000       0.270   0.969   0.429  0.00  0.00     0.181 C 
ATOM     17  O5  ZIN AC000       0.567   1.960   1.075  0.00  0.00    -0.647 OA
ATOM     18  O6  ZIN AC000       0.731  -0.118   0.733  0.00  0.00    -0.647 OA
ENDBRANCH  14  16
ENDBRANCH   1  14
TORSDOF 4
