REMARK  8 active torsions:
REMARK  status: ('A' for Active; 'I' for Inactive)
REMARK    1  A    between atoms: C2_2  and  C3_3 
REMARK    2  A    between atoms: C3_3  and  N4_4 
REMARK    3  A    between atoms: C6_6  and  C8_7 
REMARK       I    between atoms: C8_7  and  N10_9 
REMARK    4  A    between atoms: N10_9  and  C11_10 
REMARK       I    between atoms: N10_9  and  C18_17 
REMARK    5  A    between atoms: C11_10  and  C12_11 
REMARK    6  A    between atoms: C12_11  and  C13_12 
REMARK    7  A    between atoms: C13_12  and  N14_13 
REMARK       I    between atoms: C18_17  and  N20_19 
REMARK    8  A    between atoms: N20_19  and  C21_20 
ROOT
ATOM      1  N4  <0> d           1.616  -1.618   1.298  0.00  0.00     0.098 N 
ATOM      2  C5  <0> d           1.128  -0.906   2.486  0.00  0.00     0.287 C 
ATOM      3  C6  <0> d           0.779  -1.918   3.580  0.00  0.00     0.107 C 
ATOM      4  C23 <0> d           2.029  -2.731   3.930  0.00  0.00     0.027 C 
ATOM      5  C24 <0> d           2.551  -3.423   2.667  0.00  0.00     0.054 C 
ATOM      6  C26 <0> d           3.798  -4.188   2.992  0.00  0.00    -0.039 A 
ATOM      7  C27 <0> d           4.732  -4.319   1.962  0.00  0.00     0.005 A 
ATOM      8  C28 <0> d           4.601  -3.764   0.614  0.00  0.00    -0.028 A 
ATOM      9  C29 <0> d           5.700  -4.128  -0.028  0.00  0.00     0.096 A 
ATOM     10  N30 <0> d           6.522  -4.869   0.809  0.00  0.00    -0.365 N 
ATOM     11  C31 <0> d           5.955  -4.996   2.040  0.00  0.00     0.043 A 
ATOM     12  C32 <0> d           6.278  -5.590   3.259  0.00  0.00     0.030 A 
ATOM     13  C33 <0> d           5.354  -5.458   4.286  0.00  0.00     0.003 A 
ATOM     14  C34 <0> d           4.143  -4.777   4.167  0.00  0.00     0.008 A 
ATOM     15  C35 <0> d           3.367  -2.966   0.279  0.00  0.00     0.077 C 
ATOM     16  C36 <0> d           2.841  -2.373   1.594  0.00  0.00     0.236 C 
ATOM     17  H66 <0> d           7.380  -5.243   0.553  0.00  0.00     0.165 HD
ENDROOT
BRANCH   3  18
ATOM     18  C8  <0> d           0.293  -1.188   4.805  0.00  0.00     0.233 C 
ATOM     19  O9  <0> d           1.032  -1.036   5.754  0.00  0.00    -0.272 OA
ATOM     20  N10 <0> d          -0.964  -0.704   4.846  0.00  0.00    -0.270 N 
ATOM     21  C18 <0> d          -1.432  -0.139   5.977  0.00  0.00     0.325 C 
ATOM     22  O19 <0> d          -2.598   0.196   6.051  0.00  0.00    -0.247 OA
ATOM     23  N20 <0> d          -0.607   0.055   7.025  0.00  0.00    -0.343 N 
ATOM     24  H57 <0> d           0.341  -0.129   6.936  0.00  0.00     0.164 HD
BRANCH  20  25
ATOM     25  C11 <0> d          -1.822  -0.791   3.662  0.00  0.00     0.138 C 
BRANCH  25  26
ATOM     26  C12 <0> d          -2.694  -2.045   3.755  0.00  0.00     0.048 C 
BRANCH  26  27
ATOM     27  C13 <0> d          -3.590  -2.136   2.518  0.00  0.00     0.235 C 
BRANCH  27  28
ATOM     28  N14 <0> d          -4.427  -3.340   2.608  0.00  0.00    -0.079 N 
ATOM     29  H15 <0> d          -4.940  -3.329   3.476  0.00  0.00     0.278 HD
ATOM     30  C16 <0> d          -5.370  -3.366   1.482  0.00  0.00     0.269 C 
ATOM     31  C17 <0> d          -3.573  -4.535   2.558  0.00  0.00     0.269 C 
ENDBRANCH  27  28
ENDBRANCH  26  27
ENDBRANCH  25  26
ENDBRANCH  20  25
BRANCH  23  32
ATOM     32  C21 <0> d          -1.142   0.543   8.298  0.00  0.00     0.120 C 
ATOM     33  C22 <0> d           0.010   0.792   9.274  0.00  0.00     0.026 C 
ENDBRANCH  23  32
ENDBRANCH   3  18
BRANCH   1  34
ATOM     34  C3  <0> d           1.826  -0.692   0.178  0.00  0.00     0.299 C 
BRANCH  34  35
ATOM     35  C2  <0> d           0.677   0.282   0.109  0.00  0.00    -0.007 C 
ATOM     36  C1  <0> d           0.907   1.570   0.156  0.00  0.00     0.008 C 
ENDBRANCH  34  35
ENDBRANCH   1  34
TORSDOF 8
