REMARK  9 active torsions:
REMARK  status: ('A' for Active; 'I' for Inactive)
REMARK       I    between atoms: C2_2  and  N3_3 
REMARK    1  A    between atoms: C2_2  and  C14_13 
REMARK    2  A    between atoms: N3_3  and  C4_4 
REMARK    3  A    between atoms: C4_4  and  C5_5 
REMARK    4  A    between atoms: C16_15  and  O17_16 
REMARK    5  A    between atoms: O17_16  and  C18_17 
REMARK    6  A    between atoms: C18_17  and  C19_18 
REMARK    7  A    between atoms: C25_24  and  O26_25 
REMARK    8  A    between atoms: O26_25  and  C27_26 
REMARK    9  A    between atoms: C27_26  and  C28_27 
ROOT
ATOM      1  C14 ZIN AC000      -1.302   1.932   0.019  0.00  0.00     0.068 A 
ATOM      2  C15 ZIN AC000      -1.325   3.329   0.021  0.00  0.00     0.056 A 
ATOM      3  C16 ZIN AC000      -2.535   3.997   0.030  0.00  0.00     0.070 A 
ATOM      4  C23 ZIN AC000      -3.727   3.283   0.037  0.00  0.00     0.039 A 
ATOM      5  C24 ZIN AC000      -3.714   1.903   0.035  0.00  0.00     0.040 A 
ATOM      6  C25 ZIN AC000      -2.508   1.218   0.021  0.00  0.00     0.085 A 
ENDROOT
BRANCH   1   7
ATOM      7  C2  ZIN AC000      -0.014   1.212   0.009  0.00  0.00     0.254 C 
ATOM      8  O1  ZIN AC000       0.002  -0.004   0.002  0.00  0.00    -0.268 OA
ATOM      9  N3  ZIN AC000       1.143   1.901   0.001  0.00  0.00    -0.355 N 
ATOM     10  H32 ZIN AC000       1.130   2.871   0.007  0.00  0.00     0.162 HD
BRANCH   9  11
ATOM     11  C4  ZIN AC000       2.422   1.186  -0.015  0.00  0.00     0.155 C 
BRANCH  11  12
ATOM     12  C5  ZIN AC000       3.571   2.196  -0.020  0.00  0.00     0.203 C 
ATOM     13  N11 ZIN AC000       3.424   3.110   1.119  0.00  0.00    -0.069 N 
ATOM     14  C10 ZIN AC000       4.479   4.130   1.079  0.00  0.00     0.233 C 
ATOM     15  H12 ZIN AC000       2.522   3.559   1.074  0.00  0.00     0.277 HD
ATOM     16  H13 ZIN AC000       3.496   2.587   1.979  0.00  0.00     0.277 HD
ATOM     17  C9  ZIN AC000       5.847   3.460   1.228  0.00  0.00     0.027 C 
ATOM     18  C8  ZIN AC000       6.051   2.467   0.081  0.00  0.00     0.004 C 
ATOM     19  C7  ZIN AC000       4.904   1.452   0.087  0.00  0.00     0.035 C 
ENDBRANCH  11  12
ENDBRANCH   9  11
ENDBRANCH   1   7
BRANCH   6  20
ATOM     20  O26 ZIN AC000      -2.496  -0.139   0.019  0.00  0.00    -0.341 OA
BRANCH  20  21
ATOM     21  C27 ZIN AC000      -3.763  -0.799   0.033  0.00  0.00     0.293 C 
BRANCH  21  22
ATOM     22  C28 ZIN AC000      -3.549  -2.314   0.028  0.00  0.00     0.408 C 
ATOM     23  F29 ZIN AC000      -2.817  -2.685   1.162  0.00  0.00    -0.169 F 
ATOM     24  F30 ZIN AC000      -4.789  -2.961   0.042  0.00  0.00    -0.169 F 
ATOM     25  F31 ZIN AC000      -2.844  -2.682  -1.123  0.00  0.00    -0.169 F 
ENDBRANCH  21  22
ENDBRANCH  20  21
ENDBRANCH   6  20
BRANCH   3  26
ATOM     26  O17 ZIN AC000      -2.559   5.357   0.032  0.00  0.00    -0.342 OA
BRANCH  26  27
ATOM     27  C18 ZIN AC000      -3.844   5.983   0.042  0.00  0.00     0.293 C 
BRANCH  27  28
ATOM     28  C19 ZIN AC000      -3.670   7.503   0.043  0.00  0.00     0.408 C 
ATOM     29  F20 ZIN AC000      -2.970   7.893  -1.104  0.00  0.00    -0.169 F 
ATOM     30  F21 ZIN AC000      -4.927   8.116   0.052  0.00  0.00    -0.169 F 
ATOM     31  F22 ZIN AC000      -2.953   7.890   1.180  0.00  0.00    -0.169 F 
ENDBRANCH  27  28
ENDBRANCH  26  27
ENDBRANCH   3  26
TORSDOF 9
