REMARK  12 active torsions:
REMARK  status: ('A' for Active; 'I' for Inactive)
REMARK    1  A    between atoms: C3_3  and  C4_4 
REMARK    2  A    between atoms: C4_4  and  C6_5 
REMARK    3  A    between atoms: C4_4  and  C19_18 
REMARK    4  A    between atoms: C6_5  and  C7_6 
REMARK    5  A    between atoms: C12_11  and  N13_12 
REMARK    6  A    between atoms: C15_14  and  N16_15 
REMARK    7  A    between atoms: C22_21  and  C23_22 
REMARK       I    between atoms: C23_22  and  N25_24 
REMARK    8  A    between atoms: N25_24  and  C26_25 
REMARK    9  A    between atoms: C26_25  and  C28_26 
REMARK   10  A    between atoms: C26_25  and  C33_31 
REMARK   11  A    between atoms: C28_26  and  C29_27 
REMARK   12  A    between atoms: C29_27  and  C30_28 
ROOT
ATOM      1  C1  <0> d          -0.157  -1.212  -0.136  0.00  0.00     0.012 C 
ATOM      2  C2  <0> d          -0.098  -0.041  -0.076  0.00  0.00    -0.117 C 
ATOM      3  C3  <0> d          -0.024   1.427  -0.002  0.00  0.00     0.102 C 
ENDROOT
BRANCH   3   4
ATOM      4  C4  <0> d           1.442   1.862   0.057  0.00  0.00     0.035 C 
BRANCH   4   5
ATOM      5  C6  <0> d           2.134   1.504  -1.260  0.00  0.00     0.071 C 
BRANCH   5   6
ATOM      6  C7  <0> d           3.605   1.814  -1.155  0.00  0.00     0.053 A 
ATOM      7  N18 <0> d           4.063   2.962  -1.608  0.00  0.00    -0.244 NA
ATOM      8  C17 <0> d           5.359   3.234  -1.510  0.00  0.00     0.151 A 
ATOM      9  C10 <0> d           6.242   2.289  -0.929  0.00  0.00     0.201 A 
ATOM     10  C15 <0> d           5.929   4.495  -1.991  0.00  0.00     0.173 A 
ATOM     11  N9  <0> d           5.757   1.129  -0.481  0.00  0.00    -0.237 NA
ATOM     12  N11 <0> d           7.544   2.591  -0.849  0.00  0.00    -0.041 NA
ATOM     13  C8  <0> d           4.468   0.880  -0.584  0.00  0.00     0.146 A 
ATOM     14  C12 <0> d           8.004   3.741  -1.298  0.00  0.00     0.724 A 
ATOM     15  N14 <0> d           7.235   4.673  -1.853  0.00  0.00    -0.043 NA
BRANCH  14  16
ATOM     16  N13 <0> d           9.358   3.992  -1.186  0.00  0.00    -0.231 N 
ATOM     17  H44 <0> d           9.943   3.330  -0.785  0.00  0.00     0.174 HD
ATOM     18  H45 <0> d           9.725   4.831  -1.508  0.00  0.00     0.174 HD
ENDBRANCH  14  16
BRANCH  10  19
ATOM     19  N16 <0> d           5.134   5.462  -2.567  0.00  0.00    -0.381 N 
ATOM     20  H46 <0> d           5.529   6.290  -2.880  0.00  0.00     0.157 HD
ATOM     21  H47 <0> d           4.180   5.314  -2.659  0.00  0.00     0.157 HD
ENDBRANCH  10  19
ENDBRANCH   5   6
ENDBRANCH   4   5
BRANCH   4  22
ATOM     22  C19 <0> d           1.516   3.351   0.275  0.00  0.00    -0.053 A 
ATOM     23  C37 <0> d           2.152   3.853   1.397  0.00  0.00     0.008 A 
ATOM     24  C36 <0> d           2.228   5.215   1.599  0.00  0.00     0.017 A 
ATOM     25  C22 <0> d           1.653   6.088   0.675  0.00  0.00     0.032 A 
ATOM     26  C21 <0> d           1.008   5.576  -0.452  0.00  0.00     0.017 A 
ATOM     27  C20 <0> d           0.943   4.211  -0.645  0.00  0.00     0.008 A 
BRANCH  25  28
ATOM     28  C23 <0> d           1.726   7.549   0.888  0.00  0.00     0.252 C 
ATOM     29  O24 <0> d           1.223   8.307   0.082  0.00  0.00    -0.268 OA
ATOM     30  N25 <0> d           2.349   8.041   1.978  0.00  0.00    -0.342 N 
ATOM     31  H50 <0> d           2.750   7.436   2.621  0.00  0.00     0.163 HD
BRANCH  30  32
ATOM     32  C26 <0> d           2.421   9.489   2.189  0.00  0.00     0.186 C 
BRANCH  32  33
ATOM     33  C28 <0> d           2.583   9.778   3.683  0.00  0.00     0.046 C 
BRANCH  33  34
ATOM     34  C29 <0> d           1.328   9.322   4.429  0.00  0.00     0.116 C 
BRANCH  34  35
ATOM     35  C30 <0> d           1.487   9.607   5.901  0.00  0.00     0.172 C 
ATOM     36  O31 <0> d           2.509  10.127   6.314  0.00  0.00    -0.648 OA
ATOM     37  O32 <0> d           0.593   9.318   6.678  0.00  0.00    -0.648 OA
ENDBRANCH  34  35
ENDBRANCH  33  34
ENDBRANCH  32  33
BRANCH  32  38
ATOM     38  C33 <0> d           3.602  10.048   1.438  0.00  0.00     0.196 C 
ATOM     39  O34 <0> d           4.317   9.306   0.787  0.00  0.00    -0.646 OA
ATOM     40  O35 <0> d           3.842  11.242   1.482  0.00  0.00    -0.646 OA
ENDBRANCH  32  38
ENDBRANCH  30  32
ENDBRANCH  25  28
ENDBRANCH   4  22
ENDBRANCH   3   4
TORSDOF 12
