REMARK  8 active torsions:
REMARK  status: ('A' for Active; 'I' for Inactive)
REMARK    1  A    between atoms: O2_2  and  N3_3 
REMARK    2  A    between atoms: C4_4  and  C5_5 
REMARK    3  A    between atoms: C4_4  and  C27_25 
REMARK       I    between atoms: C5_5  and  N7_7 
REMARK    4  A    between atoms: N7_7  and  C8_8 
REMARK    5  A    between atoms: C13_12  and  C14_13 
REMARK    6  A    between atoms: C17_16  and  C18_17 
REMARK    7  A    between atoms: C18_17  and  O19_18 
REMARK    8  A    between atoms: O19_18  and  C20_19 
REMARK       I    between atoms: C20_19  and  N21_20 
ROOT
ATOM      1  C8  ZIN AC000      -0.848  -3.115  -2.058  0.00  0.00     0.211 C 
ATOM      2  C10 ZIN AC000      -0.018  -3.200  -3.328  0.00  0.00     0.251 C 
ATOM      3  O11 ZIN AC000       0.993  -3.792  -3.642  0.00  0.00    -0.271 OA
ATOM      4  N12 ZIN AC000      -0.849  -2.358  -3.966  0.00  0.00    -0.293 N 
ATOM      5  C13 ZIN AC000      -0.838  -1.530  -5.102  0.00  0.00     0.121 C 
ATOM      6  C17 ZIN AC000      -1.569  -0.423  -5.122  0.00  0.00    -0.013 C 
ATOM      7  C23 ZIN AC000      -2.498   0.091  -4.073  0.00  0.00     0.115 C 
ATOM      8  S24 ZIN AC000      -2.162  -0.633  -2.439  0.00  0.00    -0.136 SA
ATOM      9  C25 ZIN AC000      -1.893  -2.379  -2.890  0.00  0.00     0.187 C 
ENDROOT
BRANCH   1  10
ATOM     10  N7  ZIN AC000      -0.240  -2.288  -1.013  0.00  0.00    -0.339 N 
ATOM     11  C5  ZIN AC000       0.319  -2.869   0.067  0.00  0.00     0.276 C 
ATOM     12  O6  ZIN AC000       0.405  -4.080   0.129  0.00  0.00    -0.266 OA
ATOM     13  H35 ZIN AC000      -0.239  -1.321  -1.098  0.00  0.00     0.163 HD
BRANCH  11  14
ATOM     14  C4  ZIN AC000       0.827  -2.032   1.180  0.00  0.00     0.185 C 
ATOM     15  N3  ZIN AC000       1.465  -2.586   2.174  0.00  0.00    -0.126 NA
BRANCH  15  16
ATOM     16  O2  ZIN AC000       1.577  -3.996   2.245  0.00  0.00    -0.261 OA
ATOM     17  C1  ZIN AC000       2.300  -4.464   3.385  0.00  0.00     0.240 C 
ENDBRANCH  15  16
BRANCH  14  18
ATOM     18  C27 ZIN AC000       0.613  -0.575   1.163  0.00  0.00     0.111 A 
ATOM     19  O31 ZIN AC000      -0.025   0.120   0.201  0.00  0.00    -0.320 OA
ATOM     20  C30 ZIN AC000      -0.032   1.423   0.521  0.00  0.00     0.142 A 
ATOM     21  C29 ZIN AC000       0.614   1.583   1.695  0.00  0.00     0.027 A 
ATOM     22  C28 ZIN AC000       1.031   0.307   2.114  0.00  0.00     0.042 A 
ENDBRANCH  14  18
ENDBRANCH  11  14
ENDBRANCH   1  10
BRANCH   5  23
ATOM     23  C14 ZIN AC000      -0.017  -1.892  -6.269  0.00  0.00     0.227 C 
ATOM     24  O15 ZIN AC000      -0.087  -1.229  -7.295  0.00  0.00    -0.643 OA
ATOM     25  O16 ZIN AC000       0.734  -2.856  -6.213  0.00  0.00    -0.643 OA
ENDBRANCH   5  23
BRANCH   6  26
ATOM     26  C18 ZIN AC000      -1.444   0.424  -6.362  0.00  0.00     0.218 C 
BRANCH  26  27
ATOM     27  O19 ZIN AC000      -2.205   1.648  -6.190  0.00  0.00    -0.300 OA
BRANCH  27  28
ATOM     28  C20 ZIN AC000      -2.282   2.474  -7.251  0.00  0.00     0.358 C 
ATOM     29  N21 ZIN AC000      -2.974   3.627  -7.159  0.00  0.00    -0.346 N 
ATOM     30  H38 ZIN AC000      -3.415   3.862  -6.328  0.00  0.00     0.161 HD
ATOM     31  H39 ZIN AC000      -3.030   4.221  -7.923  0.00  0.00     0.161 HD
ATOM     32  O22 ZIN AC000      -1.730   2.178  -8.292  0.00  0.00    -0.239 OA
ENDBRANCH  27  28
ENDBRANCH  26  27
ENDBRANCH   6  26
TORSDOF 8
