REMARK  8 active torsions:
REMARK  status: ('A' for Active; 'I' for Inactive)
REMARK    1  A    between atoms: C2_2  and  C19_19 
REMARK    2  A    between atoms: C3_3  and  C4_4 
REMARK    3  A    between atoms: C4_4  and  C5_5 
REMARK    4  A    between atoms: C5_5  and  C6_6 
REMARK    5  A    between atoms: C6_6  and  C8_8 
REMARK    6  A    between atoms: C8_8  and  C9_9 
REMARK    7  A    between atoms: C9_9  and  C10_10 
REMARK    8  A    between atoms: C19_19  and  C20_20 
ROOT
ATOM      1  C6  ZIN AC000      -0.193  -0.159   5.416  0.00  0.00    -0.062 C 
ATOM      2  C7  ZIN AC000      -1.079  -0.724   6.496  0.00  0.00     0.048 C 
ENDROOT
BRANCH   1   3
ATOM      3  C5  ZIN AC000       0.241  -0.961   4.400  0.00  0.00     0.007 C 
BRANCH   3   4
ATOM      4  C4  ZIN AC000       0.941  -0.406   3.320  0.00  0.00     0.001 C 
BRANCH   4   5
ATOM      5  C3  ZIN AC000       1.379  -1.215   2.295  0.00  0.00     0.007 C 
ATOM      6  C2  ZIN AC000       2.079  -0.661   1.216  0.00  0.00    -0.056 C 
ATOM      7  C1  ZIN AC000       2.473   0.793   1.240  0.00  0.00     0.048 C 
BRANCH   6   8
ATOM      8  C19 ZIN AC000       2.406  -1.445   0.133  0.00  0.00     0.091 C 
BRANCH   8   9
ATOM      9  C20 ZIN AC000       1.778  -2.688  -0.050  0.00  0.00     0.199 C 
ATOM     10  O21 ZIN AC000       0.765  -3.046   0.740  0.00  0.00    -0.644 OA
ATOM     11  O22 ZIN AC000       2.195  -3.510  -1.014  0.00  0.00    -0.644 OA
ENDBRANCH   8   9
ENDBRANCH   6   8
ENDBRANCH   4   5
ENDBRANCH   3   4
ENDBRANCH   1   3
BRANCH   1  12
ATOM     12  C8  ZIN AC000       0.186   1.194   5.454  0.00  0.00     0.007 C 
BRANCH  12  13
ATOM     13  C9  ZIN AC000       0.861   1.681   6.528  0.00  0.00     0.009 C 
BRANCH  13  14
ATOM     14  C10 ZIN AC000       1.320   0.797   7.537  0.00  0.00    -0.048 C 
ATOM     15  C16 ZIN AC000       0.759   0.949   8.921  0.00  0.00    -0.020 C 
ATOM     16  C15 ZIN AC000       1.027  -0.318   9.738  0.00  0.00     0.014 C 
ATOM     17  C17 ZIN AC000       1.412   2.147   9.613  0.00  0.00     0.020 C 
ATOM     18  C18 ZIN AC000      -0.750   1.182   8.826  0.00  0.00     0.020 C 
ATOM     19  C14 ZIN AC000       2.514  -0.671   9.610  0.00  0.00     0.005 C 
ATOM     20  C13 ZIN AC000       2.787  -1.114   8.171  0.00  0.00     0.034 C 
ATOM     21  C11 ZIN AC000       2.222  -0.112   7.207  0.00  0.00    -0.077 C 
ATOM     22  C12 ZIN AC000       2.711  -0.144   5.782  0.00  0.00     0.044 C 
ENDBRANCH  13  14
ENDBRANCH  12  13
ENDBRANCH   1  12
TORSDOF 8
