REMARK  7 active torsions:
REMARK  status: ('A' for Active; 'I' for Inactive)
REMARK    1  A    between atoms: C2_2  and  C3_3 
REMARK    2  A    between atoms: C3_3  and  C4_4 
REMARK    3  A    between atoms: C4_4  and  C5_5 
REMARK    4  A    between atoms: C5_5  and  C6_6 
REMARK    5  A    between atoms: C6_6  and  O8_8 
REMARK    6  A    between atoms: O8_8  and  C9_9 
REMARK    7  A    between atoms: C9_9  and  C10_10 
ROOT
ATOM      1  C9  ZIN AC000       2.312  -6.177  -3.514  0.00  0.00     0.138 C 
ATOM      2  C13 ZIN AC000       2.870  -6.430  -2.092  0.00  0.00     0.048 C 
ATOM      3  C14 ZIN AC000       4.195  -7.219  -2.275  0.00  0.00     0.009 C 
ATOM      4  C15 ZIN AC000       4.624  -6.842  -3.698  0.00  0.00     0.002 C 
ATOM      5  C17 ZIN AC000       5.577  -7.809  -4.377  0.00  0.00    -0.004 C 
ATOM      6  C19 ZIN AC000       6.908  -7.842  -3.619  0.00  0.00     0.010 C 
ATOM      7  C20 ZIN AC000       7.832  -8.871  -4.273  0.00  0.00     0.035 C 
ATOM      8  C21 ZIN AC000       7.976  -8.533  -5.746  0.00  0.00    -0.068 C 
ATOM      9  C22 ZIN AC000       9.206  -8.499  -6.256  0.00  0.00     0.053 C 
ATOM     10  C23 ZIN AC000       9.404  -8.194  -7.677  0.00  0.00     0.149 C 
ATOM     11  O24 ZIN AC000      10.464  -7.784  -8.101  0.00  0.00    -0.293 OA
ATOM     12  C25 ZIN AC000       8.213  -8.418  -8.589  0.00  0.00     0.084 C 
ATOM     13  C26 ZIN AC000       7.008  -7.734  -7.944  0.00  0.00     0.022 C 
ATOM     14  C27 ZIN AC000       6.739  -8.270  -6.548  0.00  0.00    -0.016 C 
ATOM     15  C28 ZIN AC000       5.974  -9.588  -6.687  0.00  0.00     0.020 C 
ATOM     16  C29 ZIN AC000       5.814  -7.299  -5.806  0.00  0.00     0.002 C 
ATOM     17  C31 ZIN AC000       4.513  -7.151  -6.590  0.00  0.00     0.007 C 
ATOM     18  C32 ZIN AC000       3.491  -6.284  -5.838  0.00  0.00     0.013 C 
ATOM     19  C33 ZIN AC000       3.272  -6.894  -4.458  0.00  0.00    -0.001 C 
ATOM     20  C34 ZIN AC000       2.875  -8.365  -4.598  0.00  0.00     0.019 C 
ENDROOT
BRANCH   1  21
ATOM     21  O8  ZIN AC000       2.293  -4.754  -3.801  0.00  0.00    -0.301 OA
BRANCH  21  22
ATOM     22  C6  ZIN AC000       1.571  -3.976  -2.980  0.00  0.00     0.260 C 
ATOM     23  O7  ZIN AC000       0.899  -4.477  -2.109  0.00  0.00    -0.265 OA
BRANCH  22  24
ATOM     24  C5  ZIN AC000       1.598  -2.478  -3.143  0.00  0.00     0.111 C 
BRANCH  24  25
ATOM     25  C4  ZIN AC000       0.696  -1.833  -2.088  0.00  0.00     0.010 C 
BRANCH  25  26
ATOM     26  C3  ZIN AC000       0.724  -0.313  -2.254  0.00  0.00     0.000 C 
BRANCH  26  27
ATOM     27  C2  ZIN AC000      -0.178   0.332  -1.199  0.00  0.00    -0.005 C 
ATOM     28  C1  ZIN AC000      -0.150   1.852  -1.365  0.00  0.00     0.005 C 
ENDBRANCH  26  27
ENDBRANCH  25  26
ENDBRANCH  24  25
ENDBRANCH  22  24
ENDBRANCH  21  22
ENDBRANCH   1  21
BRANCH   1  29
ATOM     29  C10 ZIN AC000       0.925  -6.753  -3.643  0.00  0.00     0.158 C 
ATOM     30  C11 ZIN AC000      -0.023  -6.209  -4.680  0.00  0.00     0.094 C 
ATOM     31  O12 ZIN AC000       0.575  -7.651  -2.916  0.00  0.00    -0.295 OA
ENDBRANCH   1  29
TORSDOF 7
