REMARK  4 active torsions:
REMARK  status: ('A' for Active; 'I' for Inactive)
REMARK    1  A    between atoms: O2_2  and  C3_3 
REMARK       I    between atoms: C3_3  and  N5_5 
REMARK    2  A    between atoms: N5_5  and  C6_6 
REMARK    3  A    between atoms: C10_10  and  C11_11 
REMARK    4  A    between atoms: C11_11  and  C13_13 
ROOT
ATOM      1  C6  <0> d           0.808  -2.498  -2.564  0.00  0.00     0.710 A 
ATOM      2  N7  <0> d           0.789  -3.781  -2.819  0.00  0.00    -0.062 NA
ATOM      3  C8  <0> d           1.700  -4.066  -3.786  0.00  0.00     0.104 A 
ATOM      4  C9  <0> d           2.085  -5.244  -4.420  0.00  0.00     0.050 A 
ATOM      5  C10 <0> d           3.077  -5.205  -5.398  0.00  0.00     0.017 A 
ATOM      6  C19 <0> d           3.682  -3.988  -5.739  0.00  0.00     0.018 A 
ATOM      7  C20 <0> d           3.307  -2.832  -5.118  0.00  0.00     0.033 A 
ATOM      8  C21 <0> d           2.319  -2.852  -4.141  0.00  0.00     0.078 A 
ATOM      9  N22 <0> d           1.732  -1.879  -3.357  0.00  0.00    -0.187 N 
ATOM     10  H35 <0> d           1.938  -0.931  -3.367  0.00  0.00     0.184 HD
ENDROOT
BRANCH   5  11
ATOM     11  C11 <0> d           3.492  -6.449  -6.077  0.00  0.00     0.192 C 
ATOM     12  O12 <0> d           4.449  -6.442  -6.827  0.00  0.00    -0.287 OA
BRANCH  11  13
ATOM     13  C13 <0> d           2.744  -7.702  -5.844  0.00  0.00     0.015 A 
ATOM     14  C18 <0> d           3.414  -8.927  -5.838  0.00  0.00     0.015 A 
ATOM     15  C17 <0> d           2.711 -10.093  -5.614  0.00  0.00     0.001 A 
ATOM     16  C16 <0> d           1.343 -10.050  -5.408  0.00  0.00     0.000 A 
ATOM     17  C15 <0> d           0.672  -8.840  -5.418  0.00  0.00     0.001 A 
ATOM     18  C14 <0> d           1.364  -7.667  -5.635  0.00  0.00     0.015 A 
ENDBRANCH  11  13
ENDBRANCH   5  11
BRANCH   1  19
ATOM     19  N5  <0> d           0.007  -1.861  -1.632  0.00  0.00    -0.133 N 
ATOM     20  C3  <0> d           0.108  -0.528  -1.455  0.00  0.00     0.378 C 
ATOM     21  O4  <0> d           0.901   0.114  -2.114  0.00  0.00    -0.238 OA
ATOM     22  H26 <0> d          -0.626  -2.373  -1.106  0.00  0.00     0.190 HD
BRANCH  20  23
ATOM     23  O2  <0> d          -0.671   0.091  -0.549  0.00  0.00    -0.308 OA
ATOM     24  C1  <0> d          -0.509   1.528  -0.412  0.00  0.00     0.215 C 
ENDBRANCH  20  23
ENDBRANCH   1  19
TORSDOF 4
