REMARK  8 active torsions:
REMARK  status: ('A' for Active; 'I' for Inactive)
REMARK    1  A    between atoms: C2_2  and  C3_3 
REMARK    2  A    between atoms: C3_3  and  C4_4 
REMARK    3  A    between atoms: C4_4  and  O5_5 
REMARK    4  A    between atoms: O5_5  and  C6_6 
REMARK    5  A    between atoms: C9_9  and  C10_10 
REMARK    6  A    between atoms: C10_10  and  C12_12 
REMARK    7  A    between atoms: C12_12  and  C13_13 
REMARK    8  A    between atoms: C13_13  and  N14_14 
ROOT
ATOM      1  C6  ZIN AC000       1.514  -3.831  -2.603  0.00  0.00     0.068 A 
ATOM      2  C7  ZIN AC000       0.977  -4.689  -1.649  0.00  0.00     0.037 A 
ATOM      3  C8  ZIN AC000       1.081  -6.046  -1.808  0.00  0.00     0.018 A 
ATOM      4  C9  ZIN AC000       1.728  -6.569  -2.934  0.00  0.00     0.010 A 
ATOM      5  C20 ZIN AC000       2.267  -5.701  -3.892  0.00  0.00     0.018 A 
ATOM      6  C21 ZIN AC000       2.153  -4.345  -3.726  0.00  0.00     0.037 A 
ENDROOT
BRANCH   4   7
ATOM      7  C10 ZIN AC000       1.842  -8.023  -3.110  0.00  0.00     0.161 C 
ATOM      8  O11 ZIN AC000       1.375  -8.773  -2.279  0.00  0.00    -0.292 OA
BRANCH   7   9
ATOM      9  C12 ZIN AC000       2.540  -8.583  -4.323  0.00  0.00     0.114 C 
BRANCH   9  10
ATOM     10  C13 ZIN AC000       2.520 -10.111  -4.262  0.00  0.00     0.280 C 
BRANCH  10  11
ATOM     11  N14 ZIN AC000       3.200 -10.657  -5.444  0.00  0.00     0.088 N 
ATOM     12  C19 ZIN AC000       2.997 -12.108  -5.545  0.00  0.00     0.272 C 
ATOM     13  C18 ZIN AC000       3.834 -12.663  -6.700  0.00  0.00     0.030 C 
ATOM     14  C17 ZIN AC000       3.415 -11.978  -8.003  0.00  0.00     0.003 C 
ATOM     15  C16 ZIN AC000       3.590 -10.464  -7.855  0.00  0.00     0.030 C 
ATOM     16  C15 ZIN AC000       2.760  -9.973  -6.667  0.00  0.00     0.272 C 
ENDBRANCH  10  11
ENDBRANCH   9  10
ENDBRANCH   7   9
ENDBRANCH   4   7
BRANCH   1  17
ATOM     17  O5  ZIN AC000       1.408  -2.488  -2.441  0.00  0.00    -0.351 OA
BRANCH  17  18
ATOM     18  C4  ZIN AC000       0.739  -2.027  -1.265  0.00  0.00     0.175 C 
BRANCH  18  19
ATOM     19  C3  ZIN AC000       0.718  -0.497  -1.257  0.00  0.00     0.026 C 
BRANCH  19  20
ATOM     20  C2  ZIN AC000       0.002  -0.004   0.002  0.00  0.00    -0.002 C 
ATOM     21  C1  ZIN AC000      -0.019   1.526   0.010  0.00  0.00     0.005 C 
ENDBRANCH  19  20
ENDBRANCH  18  19
ENDBRANCH  17  18
ENDBRANCH   1  17
TORSDOF 8
