REMARK  14 active torsions:
REMARK  status: ('A' for Active; 'I' for Inactive)
REMARK    1  A    between atoms: C2_2  and  C3_3 
REMARK    2  A    between atoms: C4_4  and  C5_5 
REMARK    3  A    between atoms: C5_5  and  C6_6 
REMARK    4  A    between atoms: C7_7  and  C8_8 
REMARK    5  A    between atoms: C8_8  and  C9_9 
REMARK    6  A    between atoms: C10_10  and  C11_11 
REMARK    7  A    between atoms: C11_11  and  C12_12 
REMARK    8  A    between atoms: C13_13  and  C14_14 
REMARK    9  A    between atoms: C14_14  and  C15_15 
REMARK   10  A    between atoms: C16_16  and  C17_17 
REMARK   11  A    between atoms: C17_17  and  C18_18 
REMARK   12  A    between atoms: C19_19  and  C20_20 
REMARK   13  A    between atoms: C20_20  and  C21_21 
REMARK   14  A    between atoms: C21_21  and  C22_22 
ROOT
ATOM      1  C12 ZIN AC000      -2.274  -2.756  -9.009  0.00  0.00    -0.027 C 
ATOM      2  C13 ZIN AC000      -3.418  -2.789  -9.646  0.00  0.00    -0.027 C 
ENDROOT
BRANCH   1   3
ATOM      3  C11 ZIN AC000      -1.990  -3.755  -7.917  0.00  0.00     0.053 C 
BRANCH   3   4
ATOM      4  C10 ZIN AC000      -0.686  -4.455  -8.202  0.00  0.00    -0.027 C 
ATOM      5  C9  ZIN AC000       0.253  -4.488  -7.289  0.00  0.00    -0.027 C 
BRANCH   5   6
ATOM      6  C8  ZIN AC000      -0.030  -3.982  -5.898  0.00  0.00     0.053 C 
BRANCH   6   7
ATOM      7  C7  ZIN AC000       0.336  -5.043  -4.893  0.00  0.00    -0.027 C 
ATOM      8  C6  ZIN AC000       1.148  -4.758  -3.906  0.00  0.00    -0.027 C 
BRANCH   8   9
ATOM      9  C5  ZIN AC000       1.589  -3.334  -3.680  0.00  0.00     0.053 C 
BRANCH   9  10
ATOM     10  C4  ZIN AC000       1.331  -2.951  -2.245  0.00  0.00    -0.027 C 
ATOM     11  C3  ZIN AC000       2.302  -2.463  -1.513  0.00  0.00    -0.031 C 
BRANCH  11  12
ATOM     12  C2  ZIN AC000       3.630  -2.133  -2.146  0.00  0.00     0.022 C 
ATOM     13  C1  ZIN AC000       4.019  -0.696  -1.794  0.00  0.00     0.009 C 
ENDBRANCH  11  12
ENDBRANCH   9  10
ENDBRANCH   8   9
ENDBRANCH   6   7
ENDBRANCH   5   6
ENDBRANCH   3   4
ENDBRANCH   1   3
BRANCH   2  14
ATOM     14  C14 ZIN AC000      -4.513  -3.715  -9.181  0.00  0.00     0.053 C 
BRANCH  14  15
ATOM     15  C15 ZIN AC000      -5.788  -2.933  -8.997  0.00  0.00    -0.027 C 
ATOM     16  C16 ZIN AC000      -6.872  -3.288  -9.640  0.00  0.00    -0.027 C 
BRANCH  16  17
ATOM     17  C17 ZIN AC000      -6.805  -4.361 -10.696  0.00  0.00     0.053 C 
BRANCH  17  18
ATOM     18  C18 ZIN AC000      -7.701  -5.508 -10.305  0.00  0.00    -0.027 C 
ATOM     19  C19 ZIN AC000      -8.595  -5.959 -11.150  0.00  0.00    -0.030 C 
BRANCH  19  20
ATOM     20  C20 ZIN AC000      -8.620  -5.444 -12.566  0.00  0.00     0.037 C 
BRANCH  20  21
ATOM     21  C21 ZIN AC000      -8.567  -6.623 -13.539  0.00  0.00     0.117 C 
BRANCH  21  22
ATOM     22  C22 ZIN AC000      -8.592  -6.109 -14.955  0.00  0.00     0.172 C 
ATOM     23  O23 ZIN AC000      -8.647  -4.909 -15.166  0.00  0.00    -0.648 OA
ATOM     24  O24 ZIN AC000      -8.557  -6.891 -15.889  0.00  0.00    -0.648 OA
ENDBRANCH  21  22
ENDBRANCH  20  21
ENDBRANCH  19  20
ENDBRANCH  17  18
ENDBRANCH  16  17
ENDBRANCH  14  15
ENDBRANCH   2  14
TORSDOF 14
