REMARK  10 active torsions:
REMARK  status: ('A' for Active; 'I' for Inactive)
REMARK    1  A    between atoms: C2_2  and  C3_3 
REMARK    2  A    between atoms: C3_3  and  C4_4 
REMARK    3  A    between atoms: C4_4  and  C5_5 
REMARK    4  A    between atoms: C5_5  and  C7_6 
REMARK    5  A    between atoms: C5_5  and  C9_8 
REMARK    6  A    between atoms: C9_8  and  O10_9 
REMARK    7  A    between atoms: O10_9  and  C11_10 
REMARK    8  A    between atoms: C11_10  and  C13_12 
REMARK    9  A    between atoms: C14_13  and  C15_14 
REMARK   10  A    between atoms: C18_17  and  O19_18 
ROOT
ATOM      1  C11 ZIN AC000      -4.426  -5.817  -0.151  0.00  0.00     0.282 C 
ATOM      2  O12 ZIN AC000      -3.466  -6.563  -0.095  0.00  0.00    -0.260 OA
ENDROOT
BRANCH   1   3
ATOM      3  O10 ZIN AC000      -4.244  -4.481  -0.130  0.00  0.00    -0.318 OA
BRANCH   3   4
ATOM      4  C9  ZIN AC000      -2.898  -4.010  -0.040  0.00  0.00     0.183 C 
BRANCH   4   5
ATOM      5  C5  ZIN AC000      -2.892  -2.480  -0.029  0.00  0.00     0.010 C 
BRANCH   5   6
ATOM      6  C4  ZIN AC000      -1.448  -1.976  -0.058  0.00  0.00     0.007 C 
BRANCH   6   7
ATOM      7  C3  ZIN AC000      -0.801  -2.360  -1.390  0.00  0.00     0.000 C 
BRANCH   7   8
ATOM      8  C2  ZIN AC000       0.597  -1.744  -1.475  0.00  0.00    -0.005 C 
ATOM      9  C1  ZIN AC000       1.244  -2.127  -2.807  0.00  0.00     0.005 C 
ENDBRANCH   7   8
ENDBRANCH   6   7
ENDBRANCH   5   6
BRANCH   5  10
ATOM     10  C7  ZIN AC000      -3.582  -1.977   1.241  0.00  0.00     0.002 C 
ATOM     11  C8  ZIN AC000      -3.705  -0.453   1.184  0.00  0.00     0.005 C 
ENDBRANCH   5  10
ENDBRANCH   4   5
ENDBRANCH   3   4
ENDBRANCH   1   3
BRANCH   1  12
ATOM     12  C13 ZIN AC000      -5.736  -6.353  -0.239  0.00  0.00     0.083 C 
ATOM     13  C14 ZIN AC000      -5.918  -7.692  -0.261  0.00  0.00     0.017 C 
BRANCH  13  14
ATOM     14  C15 ZIN AC000      -7.275  -8.247  -0.352  0.00  0.00    -0.036 A 
ATOM     15  C22 ZIN AC000      -7.467  -9.634  -0.374  0.00  0.00     0.014 A 
ATOM     16  C21 ZIN AC000      -8.741 -10.149  -0.455  0.00  0.00     0.037 A 
ATOM     17  C18 ZIN AC000      -9.835  -9.295  -0.525  0.00  0.00     0.068 A 
ATOM     18  C17 ZIN AC000      -9.650  -7.917  -0.509  0.00  0.00     0.037 A 
ATOM     19  C16 ZIN AC000      -8.381  -7.392  -0.423  0.00  0.00     0.014 A 
BRANCH  17  20
ATOM     20  O19 ZIN AC000     -11.089  -9.808  -0.610  0.00  0.00    -0.356 OA
ATOM     21  C20 ZIN AC000     -11.208 -11.232  -0.621  0.00  0.00     0.210 C 
ENDBRANCH  17  20
ENDBRANCH  13  14
ENDBRANCH   1  12
TORSDOF 10
