REMARK  1 active torsions:
REMARK  status: ('A' for Active; 'I' for Inactive)
REMARK    1  A    between atoms: N2_2  and  C4_4 
ROOT
ATOM      1  C4  ZIN AC000       0.000  -0.678  -1.180  0.00  0.00     0.030 A 
ATOM      2  C5  ZIN AC000       0.013  -2.087  -1.184  0.00  0.00     0.031 A 
ATOM      3  C6  ZIN AC000       0.011  -2.806  -2.328  0.00  0.00     0.035 A 
ATOM      4  C7  ZIN AC000      -0.004  -2.144  -3.586  0.00  0.00     0.074 A 
ATOM      5  N8  ZIN AC000      -0.006  -2.827  -4.704  0.00  0.00    -0.246 NA
ATOM      6  C9  ZIN AC000      -0.018  -2.518  -5.977  0.00  0.00     0.074 A 
ATOM      7  C10 ZIN AC000      -0.016  -3.533  -6.973  0.00  0.00     0.035 A 
ATOM      8  C11 ZIN AC000      -0.029  -3.197  -8.282  0.00  0.00     0.031 A 
ATOM      9  C12 ZIN AC000      -0.044  -1.857  -8.716  0.00  0.00     0.030 A 
ATOM     10  N13 ZIN AC000      -0.057  -1.576 -10.047  0.00  0.00    -0.390 N 
ATOM     11  C14 ZIN AC000      -0.054  -2.667 -11.026  0.00  0.00     0.149 C 
ATOM     12  C15 ZIN AC000      -0.073  -0.184 -10.502  0.00  0.00     0.149 C 
ATOM     13  C16 ZIN AC000      -0.048  -0.813  -7.784  0.00  0.00     0.050 A 
ATOM     14  C17 ZIN AC000      -0.034  -1.121  -6.454  0.00  0.00     0.036 A 
ATOM     15  S18 ZIN AC000      -0.037   0.104  -5.162  0.00  0.00    -0.086 SA
ATOM     16  C19 ZIN AC000      -0.017  -0.668  -3.559  0.00  0.00     0.036 A 
ATOM     17  C20 ZIN AC000      -0.021   0.032  -2.386  0.00  0.00     0.050 A 
ENDROOT
BRANCH   1  18
ATOM     18  N2  ZIN AC000       0.002  -0.004   0.002  0.00  0.00    -0.390 N 
ATOM     19  C1  ZIN AC000      -0.018   1.461   0.010  0.00  0.00     0.149 C 
ATOM     20  C3  ZIN AC000       0.024  -0.743   1.267  0.00  0.00     0.149 C 
ENDBRANCH   1  18
TORSDOF 1
