REMARK  4 active torsions:
REMARK  status: ('A' for Active; 'I' for Inactive)
REMARK    1  A    between atoms: C3_3  and  C4_4 
REMARK    2  A    between atoms: C4_4  and  O5_5 
REMARK    3  A    between atoms: C22_20  and  C24_21 
REMARK    4  A    between atoms: C27_24  and  N28_25 
ROOT
ATOM      1  C1  ZIN AC000      -0.990   1.981   0.886  0.00  0.00     0.112 C 
ATOM      2  C2  ZIN AC000      -0.651   0.548   0.898  0.00  0.00    -0.108 C 
ATOM      3  C3  ZIN AC000      -0.380  -0.594   0.907  0.00  0.00    -0.068 C 
ENDROOT
BRANCH   3   4
ATOM      4  C4  ZIN AC000      -0.041  -2.026   0.919  0.00  0.00     0.128 C 
ATOM      5  C34 ZIN AC000      -1.225  -2.854   0.424  0.00  0.00     0.004 C 
ATOM      6  C8  ZIN AC000      -0.986  -2.946  -1.106  0.00  0.00     0.006 C 
ATOM      7  C33 ZIN AC000      -2.580  -2.252   0.623  0.00  0.00     0.027 C 
ATOM      8  C35 ZIN AC000      -1.183  -4.255   1.037  0.00  0.00     0.020 C 
ATOM      9  C7  ZIN AC000       0.518  -3.244  -1.171  0.00  0.00     0.010 C 
ATOM     10  C10 ZIN AC000      -1.879  -4.048  -1.661  0.00  0.00     0.021 C 
ATOM     11  C6  ZIN AC000       1.108  -2.313  -0.078  0.00  0.00     0.052 C 
ATOM     12  C21 ZIN AC000      -3.301  -3.707  -1.294  0.00  0.00    -0.060 C 
ATOM     13  C12 ZIN AC000      -1.669  -4.166  -3.161  0.00  0.00     0.014 C 
ATOM     14  C20 ZIN AC000      -4.311  -3.812  -2.145  0.00  0.00    -0.048 C 
ATOM     15  C22 ZIN AC000      -3.622  -3.263   0.119  0.00  0.00     0.049 C 
ATOM     16  C14 ZIN AC000      -4.094  -4.303  -3.506  0.00  0.00    -0.048 C 
ATOM     17  C19 ZIN AC000      -5.712  -3.433  -1.727  0.00  0.00     0.047 C 
ATOM     18  C13 ZIN AC000      -2.783  -4.977  -3.821  0.00  0.00     0.040 C 
ATOM     19  C15 ZIN AC000      -5.056  -4.154  -4.444  0.00  0.00     0.057 C 
ATOM     20  C16 ZIN AC000      -6.232  -3.440  -4.157  0.00  0.00     0.150 C 
ATOM     21  O17 ZIN AC000      -7.144  -3.446  -4.959  0.00  0.00    -0.293 OA
ATOM     22  C18 ZIN AC000      -6.380  -2.669  -2.873  0.00  0.00     0.087 C 
BRANCH  15  23
ATOM     23  C24 ZIN AC000      -3.626  -4.465   1.028  0.00  0.00    -0.050 A 
ATOM     24  C32 ZIN AC000      -3.669  -5.737   0.489  0.00  0.00     0.010 A 
ATOM     25  C31 ZIN AC000      -3.668  -6.841   1.319  0.00  0.00     0.030 A 
ATOM     26  C27 ZIN AC000      -3.634  -6.671   2.697  0.00  0.00     0.029 A 
ATOM     27  C26 ZIN AC000      -3.596  -5.391   3.235  0.00  0.00     0.030 A 
ATOM     28  C25 ZIN AC000      -3.593  -4.292   2.400  0.00  0.00     0.010 A 
BRANCH  26  29
ATOM     29  N28 ZIN AC000      -3.638  -7.785   3.540  0.00  0.00    -0.390 N 
ATOM     30  C29 ZIN AC000      -3.716  -7.606   4.991  0.00  0.00     0.149 C 
ATOM     31  C30 ZIN AC000      -3.565  -9.134   2.971  0.00  0.00     0.149 C 
ENDBRANCH  26  29
ENDBRANCH  15  23
BRANCH   4  32
ATOM     32  O5  ZIN AC000       0.332  -2.435   2.236  0.00  0.00    -0.377 OA
ATOM     33  H39 ZIN AC000       1.092  -1.957   2.596  0.00  0.00     0.211 HD
ENDBRANCH   4  32
ENDBRANCH   3   4
TORSDOF 4
