REMARK  1 active torsions:
REMARK  status: ('A' for Active; 'I' for Inactive)
REMARK    1  A    between atoms: C19_17  and  O20_18 
ROOT
ATOM      1  C1  ZIN AC000      -0.018   1.465   0.010  0.00  0.00     0.270 C 
ATOM      2  N2  ZIN AC000       0.002  -0.004   0.002  0.00  0.00    -0.070 N 
ATOM      3  H3  ZIN AC000      -0.943  -0.345   0.092  0.00  0.00     0.279 HD
ATOM      4  C4  ZIN AC000       0.554  -0.465  -1.274  0.00  0.00     0.236 C 
ATOM      5  C5  ZIN AC000       0.592  -1.998  -1.298  0.00  0.00     0.042 C 
ATOM      6  C6  ZIN AC000       1.499  -2.457  -0.147  0.00  0.00    -0.005 C 
ATOM      7  C7  ZIN AC000       1.647  -3.973  -0.161  0.00  0.00     0.015 C 
ATOM      8  C8  ZIN AC000       2.529  -4.413   1.010  0.00  0.00     0.001 C 
ATOM      9  C9  ZIN AC000       1.891  -3.964   2.325  0.00  0.00     0.001 C 
ATOM     10  C10 ZIN AC000       1.756  -2.440   2.336  0.00  0.00     0.008 C 
ATOM     11  C11 ZIN AC000       0.869  -1.999   1.170  0.00  0.00     0.030 C 
ATOM     12  C13 ZIN AC000       0.784  -0.472   1.137  0.00  0.00     0.197 C 
ATOM     13  C15 ZIN AC000       2.177   0.127   1.181  0.00  0.00     0.072 C 
ATOM     14  C16 ZIN AC000       3.140  -0.595   0.277  0.00  0.00    -0.049 A 
ATOM     15  C17 ZIN AC000       4.380  -0.007   0.053  0.00  0.00     0.010 A 
ATOM     16  C18 ZIN AC000       5.314  -0.625  -0.751  0.00  0.00     0.037 A 
ATOM     17  C19 ZIN AC000       5.018  -1.844  -1.343  0.00  0.00     0.066 A 
ATOM     18  C21 ZIN AC000       3.780  -2.427  -1.125  0.00  0.00     0.045 A 
ATOM     19  C22 ZIN AC000       2.843  -1.796  -0.321  0.00  0.00    -0.040 A 
ENDROOT
BRANCH  17  20
ATOM     20  O20 ZIN AC000       5.936  -2.463  -2.131  0.00  0.00    -0.361 OA
ATOM     21  H42 ZIN AC000       6.525  -3.063  -1.653  0.00  0.00     0.217 HD
ENDBRANCH  17  20
TORSDOF 1
