REMARK  7 active torsions:
REMARK  status: ('A' for Active; 'I' for Inactive)
REMARK    1  A    between atoms: C2_2  and  C3_3 
REMARK    2  A    between atoms: C6_6  and  O8_7 
REMARK    3  A    between atoms: O8_7  and  C9_8 
REMARK    4  A    between atoms: C9_8  and  C11_10 
REMARK    5  A    between atoms: C11_10  and  S12_11 
REMARK    6  A    between atoms: S12_11  and  C13_12 
REMARK    7  A    between atoms: C42_36  and  O44_37 
ROOT
ATOM      1  C3  ZIN AC000       1.316  -0.739  -0.015  0.00  0.00     0.002 C 
ATOM      2  C4  ZIN AC000       2.446   0.309   0.027  0.00  0.00     0.022 C 
ATOM      3  C5  ZIN AC000       1.470  -1.572  -1.306  0.00  0.00     0.049 C 
ATOM      4  C6  ZIN AC000       0.369  -2.623  -1.513  0.00  0.00     0.142 C 
ATOM      5  C25 ZIN AC000       0.748  -4.015  -1.011  0.00  0.00    -0.003 C 
ATOM      6  C26 ZIN AC000       1.488  -4.575  -2.237  0.00  0.00     0.019 C 
ATOM      7  C27 ZIN AC000       1.734  -4.150   0.070  0.00  0.00     0.075 C 
ATOM      8  C29 ZIN AC000       2.565  -5.371   0.279  0.00  0.00     0.132 C 
ATOM      9  O30 ZIN AC000       2.846  -6.243  -0.506  0.00  0.00    -0.298 OA
ATOM     10  C31 ZIN AC000       3.018  -5.326   1.740  0.00  0.00     0.079 C 
ATOM     11  C32 ZIN AC000       2.202  -4.195   2.421  0.00  0.00     0.018 C 
ATOM     12  C33 ZIN AC000       1.031  -3.997   1.487  0.00  0.00    -0.023 C 
ATOM     13  C34 ZIN AC000      -0.002  -5.111   1.586  0.00  0.00     0.011 C 
ATOM     14  C35 ZIN AC000      -1.063  -4.917   0.500  0.00  0.00     0.006 C 
ATOM     15  C36 ZIN AC000      -0.414  -4.983  -0.882  0.00  0.00    -0.007 C 
ATOM     16  C38 ZIN AC000      -1.475  -4.751  -1.952  0.00  0.00     0.011 C 
ATOM     17  C39 ZIN AC000       0.377  -2.642   1.363  0.00  0.00     0.021 C 
ATOM     18  C41 ZIN AC000      -0.371  -2.330   2.675  0.00  0.00     0.013 C 
ATOM     19  C42 ZIN AC000       1.453  -1.604   1.171  0.00  0.00     0.134 C 
ENDROOT
BRANCH   4  20
ATOM     20  O8  ZIN AC000       0.166  -2.707  -2.962  0.00  0.00    -0.315 OA
BRANCH  20  21
ATOM     21  C9  ZIN AC000      -0.750  -1.885  -3.498  0.00  0.00     0.268 C 
ATOM     22  O10 ZIN AC000      -1.363  -1.121  -2.790  0.00  0.00    -0.264 OA
BRANCH  21  23
ATOM     23  C11 ZIN AC000      -1.013  -1.914  -4.981  0.00  0.00     0.185 C 
BRANCH  23  24
ATOM     24  S12 ZIN AC000      -2.294  -0.696  -5.392  0.00  0.00    -0.154 SA
BRANCH  24  25
ATOM     25  C13 ZIN AC000      -2.468  -0.878  -7.189  0.00  0.00     0.051 C 
ATOM     26  C21 ZIN AC000      -3.439   0.182  -7.716  0.00  0.00     0.048 C 
ATOM     27  C19 ZIN AC000      -4.832  -0.101  -7.132  0.00  0.00     0.189 C 
ATOM     28  C18 ZIN AC000      -4.692  -0.368  -5.616  0.00  0.00     0.035 C 
ATOM     29  N22 ZIN AC000      -5.276  -1.416  -7.705  0.00  0.00    -0.066 N 
ATOM     30  C17 ZIN AC000      -4.432  -1.885  -5.504  0.00  0.00     0.035 C 
ATOM     31  C15 ZIN AC000      -4.438  -2.396  -6.963  0.00  0.00     0.189 C 
ATOM     32  C14 ZIN AC000      -3.006  -2.276  -7.509  0.00  0.00     0.048 C 
ATOM     33  H23 ZIN AC000      -5.088  -1.453  -8.696  0.00  0.00     0.280 HD
ATOM     34  C24 ZIN AC000      -6.703  -1.641  -7.440  0.00  0.00     0.270 C 
ENDBRANCH  24  25
ENDBRANCH  23  24
ENDBRANCH  21  23
ENDBRANCH  20  21
ENDBRANCH   4  20
BRANCH   1  35
ATOM     35  C2  ZIN AC000       0.002  -0.004   0.002  0.00  0.00    -0.025 C 
ATOM     36  C1  ZIN AC000      -0.016   1.306   0.009  0.00  0.00     0.008 C 
ENDBRANCH   1  35
BRANCH  19  37
ATOM     37  O44 ZIN AC000       1.455  -0.755   2.331  0.00  0.00    -0.394 OA
ATOM     38  H84 ZIN AC000       2.118  -0.051   2.302  0.00  0.00     0.210 HD
ENDBRANCH  19  37
TORSDOF 7
