REMARK  3 active torsions:
REMARK  status: ('A' for Active; 'I' for Inactive)
REMARK    1  A    between atoms: C8_8  and  O9_9 
REMARK    2  A    between atoms: C10_10  and  C12_11 
REMARK    3  A    between atoms: C15_14  and  O16_15 
ROOT
ATOM      1  O1  <0> d           0.002  -0.004   0.002  0.00  0.00    -0.187 OA
ATOM      2  C2  <0> d          -0.016   1.356   0.009  0.00  0.00     0.162 A 
ATOM      3  C3  <0> d          -1.222   2.036   0.030  0.00  0.00     0.080 A 
ATOM      4 Cl4  <0> d          -2.713   1.147   0.057  0.00  0.00    -0.081 Cl
ATOM      5  C5  <0> d          -1.246   3.425   0.031  0.00  0.00    -0.025 A 
ATOM      6  C6  <0> d          -0.067   4.133  -0.003  0.00  0.00    -0.037 A 
ATOM      7  C7  <0> d           1.145   3.455  -0.008  0.00  0.00     0.048 A 
ATOM      8  C8  <0> d           1.177   2.072   0.002  0.00  0.00     0.104 A 
ATOM      9  C10 <0> d          -0.025   5.640  -0.070  0.00  0.00     0.078 C 
ATOM     10  C19 <0> d          -1.251   6.254   0.605  0.00  0.00     0.246 C 
ATOM     11  N20 <0> d          -2.291   6.463  -0.408  0.00  0.00    -0.074 N 
ATOM     12  H21 <0> d          -3.094   6.898   0.022  0.00  0.00     0.277 HD
ATOM     13  H22 <0> d          -1.934   7.065  -1.135  0.00  0.00     0.277 HD
ATOM     14  C23 <0> d          -2.691   5.184  -0.997  0.00  0.00     0.237 C 
ATOM     15  C24 <0> d          -2.588   4.108   0.088  0.00  0.00     0.068 C 
ENDROOT
BRANCH   9  16
ATOM     16  C12 <0> d           1.219   6.131   0.625  0.00  0.00    -0.048 A 
ATOM     17  C18 <0> d           2.156   6.867  -0.075  0.00  0.00     0.011 A 
ATOM     18  C17 <0> d           3.295   7.323   0.561  0.00  0.00     0.037 A 
ATOM     19  C15 <0> d           3.502   7.032   1.902  0.00  0.00     0.065 A 
ATOM     20  C14 <0> d           2.562   6.289   2.601  0.00  0.00     0.037 A 
ATOM     21  C13 <0> d           1.423   5.840   1.962  0.00  0.00     0.011 A 
BRANCH  19  22
ATOM     22  O16 <0> d           4.624   7.475   2.529  0.00  0.00    -0.361 OA
ATOM     23  H29 <0> d           5.368   6.859   2.484  0.00  0.00     0.217 HD
ENDBRANCH  19  22
ENDBRANCH   9  16
BRANCH   8  24
ATOM     24  O9  <0> d           2.368   1.416  -0.006  0.00  0.00    -0.358 OA
ATOM     25  H26 <0> d           2.721   1.232   0.875  0.00  0.00     0.217 HD
ENDBRANCH   8  24
TORSDOF 3
