REMARK  1 active torsions:
REMARK  status: ('A' for Active; 'I' for Inactive)
REMARK    1  A    between atoms: C10_10  and  C11_11 
ROOT
ATOM      1  C1  ZIN AC000       0.564   1.422   0.193  0.00  0.00     0.159 C 
ATOM      2  N2  ZIN AC000       0.323  -0.020   0.105  0.00  0.00    -0.320 N 
ATOM      3  C3  ZIN AC000      -0.993  -0.453   0.163  0.00  0.00     0.049 A 
ATOM      4  C4  ZIN AC000      -1.946   0.298  -0.527  0.00  0.00     0.032 A 
ATOM      5  C5  ZIN AC000      -3.274  -0.068  -0.515  0.00  0.00     0.026 A 
ATOM      6  C6  ZIN AC000      -3.678  -1.192   0.187  0.00  0.00     0.035 A 
ATOM      7 Cl7  ZIN AC000      -5.352  -1.651   0.202  0.00  0.00    -0.084 Cl
ATOM      8  C8  ZIN AC000      -2.752  -1.946   0.873  0.00  0.00     0.040 A 
ATOM      9  C9  ZIN AC000      -1.396  -1.585   0.869  0.00  0.00     0.022 A 
ATOM     10  C10 ZIN AC000      -0.461  -2.438   1.619  0.00  0.00     0.074 C 
ATOM     11  N17 ZIN AC000       0.715  -2.771   1.218  0.00  0.00    -0.279 NA
ATOM     12  C18 ZIN AC000       1.253  -2.310  -0.061  0.00  0.00     0.252 C 
ATOM     13  C19 ZIN AC000       1.384  -0.812  -0.030  0.00  0.00     0.243 C 
ATOM     14  O20 ZIN AC000       2.486  -0.314  -0.122  0.00  0.00    -0.271 OA
ENDROOT
BRANCH  10  15
ATOM     15  C11 ZIN AC000      -0.908  -2.953   2.934  0.00  0.00    -0.007 A 
ATOM     16  C16 ZIN AC000      -1.901  -2.283   3.648  0.00  0.00     0.014 A 
ATOM     17  C15 ZIN AC000      -2.316  -2.770   4.870  0.00  0.00     0.001 A 
ATOM     18  C14 ZIN AC000      -1.742  -3.915   5.393  0.00  0.00     0.000 A 
ATOM     19  C13 ZIN AC000      -0.753  -4.582   4.692  0.00  0.00     0.001 A 
ATOM     20  C12 ZIN AC000      -0.333  -4.107   3.466  0.00  0.00     0.014 A 
ENDBRANCH  10  15
TORSDOF 1
