REMARK  3 active torsions:
REMARK  status: ('A' for Active; 'I' for Inactive)
REMARK    1  A    between atoms: C6_6  and  N8_7 
REMARK    2  A    between atoms: C10_9  and  C11_10 
REMARK    3  A    between atoms: C11_10  and  C12_11 
ROOT
ATOM      1  N8  <0> d          -0.071  -3.998   2.023  0.00  0.00    -0.229 N 
ATOM      2  N9  <0> d           0.663  -4.972   1.345  0.00  0.00    -0.173 NA
ATOM      3  C10 <0> d           0.981  -6.112   1.883  0.00  0.00     0.070 A 
ATOM      4  C19 <0> d           0.568  -6.416   3.253  0.00  0.00     0.006 A 
ATOM      5  C20 <0> d           0.888  -7.628   3.866  0.00  0.00     0.014 A 
ATOM      6  C21 <0> d           0.474  -7.866   5.158  0.00  0.00     0.001 A 
ATOM      7  C22 <0> d          -0.258  -6.915   5.856  0.00  0.00     0.001 A 
ATOM      8  C23 <0> d          -0.586  -5.711   5.271  0.00  0.00     0.018 A 
ATOM      9  C24 <0> d          -0.178  -5.449   3.965  0.00  0.00     0.046 A 
ATOM     10  C25 <0> d          -0.493  -4.182   3.291  0.00  0.00     0.275 A 
ATOM     11  O26 <0> d          -1.129  -3.316   3.865  0.00  0.00    -0.266 OA
ENDROOT
BRANCH   1  12
ATOM     12  C6  <0> d          -0.386  -2.740   1.342  0.00  0.00     0.115 C 
ATOM     13  C5  <0> d          -1.220  -3.051   0.083  0.00  0.00     0.029 C 
ATOM     14  C4  <0> d          -1.223  -1.875  -0.909  0.00  0.00     0.032 C 
ATOM     15  C3  <0> d          -1.354  -0.550  -0.201  0.00  0.00     0.272 C 
ATOM     16  N2  <0> d           0.002  -0.004   0.002  0.00  0.00     0.084 N 
ATOM     17  C1  <0> d          -0.018   1.465   0.010  0.00  0.00     0.309 C 
ATOM     18  C28 <0> d           0.672  -0.502   1.123  0.00  0.00     0.274 C 
ATOM     19  C27 <0> d           0.902  -2.026   1.022  0.00  0.00     0.057 C 
ENDBRANCH   1  12
BRANCH   3  20
ATOM     20  C11 <0> d           1.777  -7.120   1.095  0.00  0.00     0.100 C 
BRANCH  20  21
ATOM     21  C12 <0> d           2.074  -6.566  -0.275  0.00  0.00    -0.052 A 
ATOM     22  C18 <0> d           3.226  -5.834  -0.489  0.00  0.00     0.009 A 
ATOM     23  C17 <0> d           3.502  -5.330  -1.747  0.00  0.00     0.024 A 
ATOM     24  C15 <0> d           2.618  -5.550  -2.788  0.00  0.00     0.034 A 
ATOM     25  C14 <0> d           1.462  -6.279  -2.572  0.00  0.00     0.024 A 
ATOM     26 Cl16 <0> d           2.959  -4.911  -4.366  0.00  0.00    -0.084 Cl
ATOM     27  C13 <0> d           1.190  -6.786  -1.316  0.00  0.00     0.009 A 
ENDBRANCH  20  21
ENDBRANCH   3  20
TORSDOF 3
