REMARK  15 active torsions:
REMARK  status: ('A' for Active; 'I' for Inactive)
REMARK       I    between atoms: N1_1  and  C2_2 
REMARK       I    between atoms: C2_2  and  N4_4 
REMARK    1  A    between atoms: N4_4  and  C5_5 
REMARK    2  A    between atoms: C10_10  and  C12_11 
REMARK    3  A    between atoms: C12_11  and  N13_12 
REMARK       I    between atoms: N13_12  and  C14_13 
REMARK    4  A    between atoms: C14_13  and  C16_15 
REMARK    5  A    between atoms: C16_15  and  C17_16 
REMARK    6  A    between atoms: C17_16  and  N19_17 
REMARK    7  A    between atoms: C17_16  and  C23_21 
REMARK    8  A    between atoms: C23_21  and  C24_22 
REMARK    9  A    between atoms: C24_22  and  C25_23 
REMARK   10  A    between atoms: C25_23  and  N26_24 
REMARK   11  A    between atoms: C33_31  and  C35_32 
REMARK   12  A    between atoms: C35_32  and  O36_33 
REMARK   13  A    between atoms: C40_37  and  N42_38 
REMARK   14  A    between atoms: C50_46  and  C52_47 
REMARK   15  A    between atoms: C58_52  and  N59_53 
ROOT
ATOM      1  C5  ZIN AC000      -1.543  -2.068  -0.213  0.00  0.00     0.128 C 
ATOM      2  C6  ZIN AC000      -2.652  -2.820  -0.312  0.00  0.00     0.118 C 
ATOM      3  N7  ZIN AC000      -3.951  -2.279  -0.497  0.00  0.00    -0.320 N 
ATOM      4  C8  ZIN AC000      -4.166  -0.945  -0.539  0.00  0.00     0.246 C 
ATOM      5  O9  ZIN AC000      -3.374  -0.126  -0.115  0.00  0.00    -0.271 OA
ATOM      6  C10 ZIN AC000      -5.457  -0.443  -1.157  0.00  0.00     0.194 C 
ATOM      7  N30 ZIN AC000      -5.776  -1.246  -2.349  0.00  0.00    -0.344 N 
ATOM      8  C31 ZIN AC000      -6.328  -2.485  -2.218  0.00  0.00     0.243 C 
ATOM      9  O32 ZIN AC000      -6.617  -2.996  -1.159  0.00  0.00    -0.271 OA
ATOM     10  C33 ZIN AC000      -6.589  -3.270  -3.487  0.00  0.00     0.200 C 
ATOM     11  N37 ZIN AC000      -6.624  -4.708  -3.152  0.00  0.00    -0.344 N 
ATOM     12  C38 ZIN AC000      -5.422  -5.354  -3.116  0.00  0.00     0.250 C 
ATOM     13  O39 ZIN AC000      -4.393  -4.748  -3.329  0.00  0.00    -0.271 OA
ATOM     14  C40 ZIN AC000      -5.392  -6.828  -2.809  0.00  0.00     0.292 C 
ATOM     15  C46 ZIN AC000      -3.943  -7.321  -2.791  0.00  0.00     0.165 C 
ATOM     16  N47 ZIN AC000      -3.370  -7.051  -1.450  0.00  0.00    -0.357 N 
ATOM     17  C48 ZIN AC000      -2.036  -6.788  -1.423  0.00  0.00     0.242 C 
ATOM     18  O49 ZIN AC000      -1.386  -6.879  -2.452  0.00  0.00    -0.271 OA
ATOM     19  C50 ZIN AC000      -1.351  -6.375  -0.148  0.00  0.00     0.200 C 
ATOM     20  N61 ZIN AC000      -1.359  -4.893  -0.053  0.00  0.00    -0.340 N 
ATOM     21  C62 ZIN AC000      -2.562  -4.287  -0.239  0.00  0.00     0.270 C 
ATOM     22  O63 ZIN AC000      -3.595  -4.926  -0.343  0.00  0.00    -0.266 OA
ATOM     23  H68 ZIN AC000      -4.705  -2.903  -0.583  0.00  0.00     0.169 HD
ATOM     24  H80 ZIN AC000      -5.591  -0.890  -3.253  0.00  0.00     0.163 HD
ATOM     25  H84 ZIN AC000      -7.459  -5.168  -2.968  0.00  0.00     0.163 HD
ATOM     26  H87 ZIN AC000      -3.934  -7.069  -0.662  0.00  0.00     0.162 HD
ATOM     27  H95 ZIN AC000      -0.537  -4.400   0.136  0.00  0.00     0.163 HD
ENDROOT
BRANCH   6  28
ATOM     28  C12 ZIN AC000      -6.580  -0.429  -0.128  0.00  0.00     0.157 C 
BRANCH  28  29
ATOM     29  N13 ZIN AC000      -7.837  -0.055  -0.782  0.00  0.00    -0.359 N 
ATOM     30  C14 ZIN AC000      -8.973   0.023  -0.062  0.00  0.00     0.219 C 
ATOM     31  O15 ZIN AC000      -8.956  -0.216   1.127  0.00  0.00    -0.274 OA
ATOM     32  H71 ZIN AC000      -7.851   0.136  -1.733  0.00  0.00     0.162 HD
BRANCH  30  33
ATOM     33  C16 ZIN AC000     -10.266   0.408  -0.734  0.00  0.00     0.135 C 
BRANCH  33  34
ATOM     34  C17 ZIN AC000     -11.394   0.422   0.299  0.00  0.00     0.192 C 
BRANCH  34  35
ATOM     35  N19 ZIN AC000     -11.140   1.480   1.287  0.00  0.00    -0.075 N 
ATOM     36  H20 ZIN AC000     -11.884   1.489   1.968  0.00  0.00     0.274 HD
ATOM     37  H21 ZIN AC000     -10.261   1.303   1.750  0.00  0.00     0.274 HD
ATOM     38  H22 ZIN AC000     -11.100   2.373   0.820  0.00  0.00     0.274 HD
ENDBRANCH  34  35
BRANCH  34  39
ATOM     39  C23 ZIN AC000     -12.726   0.690  -0.404  0.00  0.00     0.034 C 
BRANCH  39  40
ATOM     40  C24 ZIN AC000     -13.868   0.581   0.609  0.00  0.00     0.029 C 
BRANCH  40  41
ATOM     41  C25 ZIN AC000     -15.200   0.849  -0.094  0.00  0.00     0.229 C 
BRANCH  41  42
ATOM     42  N26 ZIN AC000     -16.297   0.744   0.879  0.00  0.00    -0.079 N 
ATOM     43  H27 ZIN AC000     -17.175   0.921   0.415  0.00  0.00     0.274 HD
ATOM     44  H28 ZIN AC000     -16.306  -0.183   1.276  0.00  0.00     0.274 HD
ATOM     45  H29 ZIN AC000     -16.161   1.423   1.613  0.00  0.00     0.274 HD
ENDBRANCH  41  42
ENDBRANCH  40  41
ENDBRANCH  39  40
ENDBRANCH  34  39
ENDBRANCH  33  34
ENDBRANCH  30  33
ENDBRANCH  28  29
ENDBRANCH   6  28
BRANCH  10  46
ATOM     46  C35 ZIN AC000      -7.936  -2.846  -4.074  0.00  0.00     0.199 C 
BRANCH  46  47
ATOM     47  O36 ZIN AC000      -8.956  -3.000  -3.085  0.00  0.00    -0.398 OA
ATOM     48  H83 ZIN AC000      -9.839  -2.748  -3.389  0.00  0.00     0.209 HD
ENDBRANCH  46  47
ENDBRANCH  10  46
BRANCH   1  49
ATOM     49  N4  ZIN AC000      -0.322  -2.592  -0.575  0.00  0.00    -0.317 N 
ATOM     50  C2  ZIN AC000       0.807  -1.891  -0.346  0.00  0.00     0.317 C 
ATOM     51  N1  ZIN AC000       2.002  -2.403  -0.701  0.00  0.00    -0.352 N 
ATOM     52  O3  ZIN AC000       0.746  -0.797   0.180  0.00  0.00    -0.247 OA
ATOM     53  H64 ZIN AC000       2.814  -1.899  -0.536  0.00  0.00     0.160 HD
ATOM     54  H65 ZIN AC000       2.050  -3.278  -1.117  0.00  0.00     0.160 HD
ATOM     55  H66 ZIN AC000      -0.273  -3.465  -0.995  0.00  0.00     0.170 HD
ENDBRANCH   1  49
BRANCH  19  56
ATOM     56  C52 ZIN AC000      -2.004  -7.003   1.079  0.00  0.00     0.133 C 
ATOM     57  N60 ZIN AC000      -1.353  -6.509   2.301  0.00  0.00    -0.220 N 
ATOM     58  C58 ZIN AC000      -1.518  -7.215   3.469  0.00  0.00     0.667 C 
ATOM     59  H94 ZIN AC000      -0.815  -5.701   2.283  0.00  0.00     0.178 HD
ATOM     60  N56 ZIN AC000      -2.013  -8.409   3.491  0.00  0.00    -0.227 N 
ATOM     61  C55 ZIN AC000      -2.463  -9.121   2.300  0.00  0.00     0.140 C 
ATOM     62  H57 ZIN AC000      -2.090  -8.857   4.348  0.00  0.00     0.177 HD
ATOM     63  C54 ZIN AC000      -1.821  -8.528   1.044  0.00  0.00     0.048 C 
BRANCH  58  64
ATOM     64  N59 ZIN AC000      -1.144  -6.631   4.656  0.00  0.00    -0.235 N 
ATOM     65  H92 ZIN AC000      -1.254  -7.113   5.490  0.00  0.00     0.174 HD
ATOM     66  H93 ZIN AC000      -0.770  -5.736   4.659  0.00  0.00     0.174 HD
ENDBRANCH  58  64
ENDBRANCH  19  56
BRANCH  14  67
ATOM     67  N42 ZIN AC000      -6.141  -7.559  -3.842  0.00  0.00    -0.065 N 
ATOM     68  H43 ZIN AC000      -5.719  -7.394  -4.743  0.00  0.00     0.275 HD
ATOM     69  H44 ZIN AC000      -6.121  -8.546  -3.636  0.00  0.00     0.275 HD
ATOM     70  H45 ZIN AC000      -7.098  -7.237  -3.854  0.00  0.00     0.275 HD
ENDBRANCH  14  67
TORSDOF 15
