REMARK  3 active torsions:
REMARK  status: ('A' for Active; 'I' for Inactive)
REMARK    1  A    between atoms: C2_2  and  C3_3 
REMARK    2  A    between atoms: C3_3  and  C6_5 
REMARK    3  A    between atoms: C6_5  and  C7_6 
ROOT
ATOM      1  C6  ZIN AC000       0.660  -2.025  -1.320  0.00  0.00     0.127 A 
ATOM      2  C9  ZIN AC000       1.380  -2.576  -0.104  0.00  0.00     0.266 A 
ATOM      3  O10 ZIN AC000       2.542  -2.305   0.115  0.00  0.00    -0.270 OA
ATOM      4  N11 ZIN AC000       0.680  -3.378   0.726  0.00  0.00    -0.157 NA
ATOM      5  C12 ZIN AC000      -0.602  -3.686   0.498  0.00  0.00     0.351 A 
ATOM      6  O13 ZIN AC000      -1.156  -4.414   1.297  0.00  0.00    -0.244 OA
ATOM      7  N14 ZIN AC000      -1.319  -3.249  -0.544  0.00  0.00    -0.276 N 
ATOM      8  C15 ZIN AC000      -0.791  -2.436  -1.483  0.00  0.00     0.244 A 
ATOM      9  O16 ZIN AC000      -1.452  -2.049  -2.423  0.00  0.00    -0.272 OA
ATOM     10  H30 ZIN AC000      -2.244  -3.526  -0.627  0.00  0.00     0.173 HD
ENDROOT
BRANCH   1  11
ATOM     11  C3  ZIN AC000       0.718  -0.497  -1.257  0.00  0.00     0.008 C 
ATOM     12  C5  ZIN AC000      -0.214   0.003  -0.151  0.00  0.00     0.011 C 
BRANCH  11  13
ATOM     13  C2  ZIN AC000       0.276   0.086  -2.600  0.00  0.00     0.001 C 
ATOM     14  C1  ZIN AC000       0.452   1.606  -2.579  0.00  0.00     0.005 C 
ENDBRANCH  11  13
ENDBRANCH   1  11
BRANCH   1  15
ATOM     15  C7  ZIN AC000       1.425  -2.476  -2.566  0.00  0.00     0.025 C 
ATOM     16  C8  ZIN AC000       1.389  -4.002  -2.663  0.00  0.00     0.007 C 
ENDBRANCH   1  15
TORSDOF 3
