REMARK  0 active torsions:
REMARK  status: ('A' for Active; 'I' for Inactive)
REMARK       I    between atoms: N1_1  and  C2_2 
REMARK       I    between atoms: C2_2  and  N4_4 
ROOT
ATOM      1  N1  <0> d          -0.016   1.344   0.009  0.00  0.00    -0.351 N 
ATOM      2  C2  <0> d           0.002  -0.004   0.002  0.00  0.00     0.325 C 
ATOM      3  O3  <0> d           1.060  -0.596  -0.011  0.00  0.00    -0.247 OA
ATOM      4  N4  <0> d          -1.156  -0.694   0.009  0.00  0.00    -0.263 N 
ATOM      5  C5  <0> d          -2.338  -0.037   0.019  0.00  0.00     0.054 A 
ATOM      6  C6  <0> d          -2.648   0.749  -0.992  0.00  0.00     0.031 A 
ATOM      7  C7  <0> d          -3.948   1.441  -1.019  0.00  0.00     0.002 A 
ATOM      8  C8  <0> d          -4.803   1.267  -0.034  0.00  0.00     0.001 A 
ATOM      9  C9  <0> d          -4.452   0.396   1.100  0.00  0.00     0.014 A 
ATOM     10  C10 <0> d          -3.280  -0.209   1.135  0.00  0.00    -0.009 A 
ATOM     11  C11 <0> d          -2.920  -1.006   2.311  0.00  0.00     0.014 C 
ATOM     12  C12 <0> d          -2.259  -2.115   2.305  0.00  0.00     0.014 C 
ATOM     13  C13 <0> d          -1.736  -2.802   1.121  0.00  0.00    -0.009 A 
ATOM     14  C14 <0> d          -1.788  -4.119   1.062  0.00  0.00     0.014 A 
ATOM     15  C15 <0> d          -1.237  -4.832  -0.102  0.00  0.00     0.001 A 
ATOM     16  C16 <0> d          -0.684  -4.155  -1.086  0.00  0.00     0.002 A 
ATOM     17  C17 <0> d          -0.632  -2.685  -1.026  0.00  0.00     0.031 A 
ATOM     18  C18 <0> d          -1.142  -2.046   0.002  0.00  0.00     0.054 A 
ATOM     19  H19 <0> d           0.817   1.840   0.004  0.00  0.00     0.160 HD
ATOM     20  H20 <0> d          -0.863   1.817   0.016  0.00  0.00     0.160 HD
ENDROOT
TORSDOF 0
