REMARK  2 active torsions:
REMARK  status: ('A' for Active; 'I' for Inactive)
REMARK    1  A    between atoms: C11_11  and  C12_12 
REMARK    2  A    between atoms: C16_15  and  C18_16 
ROOT
ATOM      1  O1  <0> d           0.002  -0.004   0.002  0.00  0.00    -0.284 OA
ATOM      2  C2  <0> d          -0.014   1.210   0.009  0.00  0.00     0.220 C 
ATOM      3  C3  <0> d          -1.299   1.943   0.031  0.00  0.00     0.031 A 
ATOM      4  C4  <0> d          -2.500   1.296  -0.231  0.00  0.00     0.016 A 
ATOM      5  C5  <0> d          -3.687   2.014  -0.201  0.00  0.00     0.001 A 
ATOM      6  C6  <0> d          -3.681   3.365   0.086  0.00  0.00     0.001 A 
ATOM      7  C7  <0> d          -2.489   4.023   0.349  0.00  0.00     0.016 A 
ATOM      8  C8  <0> d          -1.294   3.319   0.324  0.00  0.00     0.029 A 
ATOM      9  C9  <0> d          -0.003   3.991   0.600  0.00  0.00     0.192 C 
ATOM     10  O10 <0> d           0.017   5.104   1.089  0.00  0.00    -0.287 OA
ATOM     11  C11 <0> d           1.252   3.301   0.277  0.00  0.00     0.037 C 
ATOM     12  C27 <0> d           1.255   1.980   0.001  0.00  0.00     0.168 C 
ATOM     13  O28 <0> d           2.418   1.355  -0.294  0.00  0.00    -0.187 OA
ENDROOT
BRANCH  11  14
ATOM     14  C12 <0> d           2.547   4.072   0.260  0.00  0.00     0.026 C 
ATOM     15  C26 <0> d           2.799   4.678   1.642  0.00  0.00     0.010 C 
ATOM     16  C25 <0> d           4.113   5.460   1.624  0.00  0.00     0.010 C 
ATOM     17  C16 <0> d           4.026   6.580   0.585  0.00  0.00     0.018 C 
ATOM     18  C15 <0> d           3.774   5.974  -0.798  0.00  0.00     0.010 C 
ATOM     19  C14 <0> d           2.459   5.191  -0.780  0.00  0.00     0.010 C 
BRANCH  17  20
ATOM     20  C18 <0> d           5.320   7.351   0.567  0.00  0.00    -0.054 A 
ATOM     21  C24 <0> d           5.323   8.703   0.853  0.00  0.00     0.009 A 
ATOM     22  C23 <0> d           6.511   9.410   0.843  0.00  0.00     0.024 A 
ATOM     23  C21 <0> d           7.696   8.766   0.534  0.00  0.00     0.034 A 
ATOM     24  C20 <0> d           7.692   7.413   0.242  0.00  0.00     0.024 A 
ATOM     25 Cl22 <0> d           9.187   9.654   0.513  0.00  0.00    -0.084 Cl
ATOM     26  C19 <0> d           6.504   6.707   0.258  0.00  0.00     0.009 A 
ENDBRANCH  17  20
ENDBRANCH  11  14
TORSDOF 2
