REMARK  6 active torsions:
REMARK  status: ('A' for Active; 'I' for Inactive)
REMARK    1  A    between atoms: N2_2  and  C4_4 
REMARK    2  A    between atoms: C4_4  and  C5_5 
REMARK    3  A    between atoms: C5_5  and  C6_6 
REMARK    4  A    between atoms: C6_6  and  O7_7 
REMARK    5  A    between atoms: C6_6  and  C8_8 
REMARK    6  A    between atoms: C6_6  and  C14_14 
ROOT
ATOM      1  C6  ZIN AC000      -3.389  -0.752  -1.525  0.00  0.00     0.115 C 
ENDROOT
BRANCH   1   2
ATOM      2  C5  ZIN AC000      -1.865  -0.672  -1.425  0.00  0.00     0.078 C 
BRANCH   2   3
ATOM      3  C4  ZIN AC000      -1.439  -0.867   0.032  0.00  0.00     0.275 C 
BRANCH   3   4
ATOM      4  N2  ZIN AC000       0.025  -0.789   0.128  0.00  0.00     0.080 N 
ATOM      5  C1  ZIN AC000       0.504   0.561  -0.198  0.00  0.00     0.309 C 
ATOM      6  C3  ZIN AC000       0.488  -1.204   1.460  0.00  0.00     0.309 C 
ENDBRANCH   3   4
ENDBRANCH   2   3
ENDBRANCH   1   2
BRANCH   1   7
ATOM      7  O7  ZIN AC000      -3.972   0.340  -0.812  0.00  0.00    -0.380 OA
ATOM      8  H31 ZIN AC000      -3.710   1.210  -1.142  0.00  0.00     0.211 HD
ENDBRANCH   1   7
BRANCH   1   9
ATOM      9  C8  ZIN AC000      -3.802  -0.684  -2.973  0.00  0.00    -0.019 A 
ATOM     10  C13 ZIN AC000      -5.140  -0.734  -3.314  0.00  0.00     0.010 A 
ATOM     11  C12 ZIN AC000      -5.519  -0.667  -4.641  0.00  0.00     0.001 A 
ATOM     12  C11 ZIN AC000      -4.558  -0.558  -5.629  0.00  0.00     0.000 A 
ATOM     13  C10 ZIN AC000      -3.219  -0.513  -5.289  0.00  0.00     0.001 A 
ATOM     14  C9  ZIN AC000      -2.841  -0.576  -3.961  0.00  0.00     0.010 A 
ENDBRANCH   1   9
BRANCH   1  15
ATOM     15  C14 ZIN AC000      -3.864  -2.053  -0.929  0.00  0.00     0.002 A 
ATOM     16  C19 ZIN AC000      -3.504  -3.254  -1.513  0.00  0.00     0.043 A 
ATOM     17  C18 ZIN AC000      -3.935  -4.447  -0.961  0.00  0.00     0.024 A 
ATOM     18 Cl20 ZIN AC000      -2.499  -3.265  -2.929  0.00  0.00    -0.084 Cl
ATOM     19  C17 ZIN AC000      -4.735  -4.438   0.166  0.00  0.00     0.002 A 
ATOM     20  C16 ZIN AC000      -5.099  -3.237   0.745  0.00  0.00     0.001 A 
ATOM     21  C15 ZIN AC000      -4.664  -2.045   0.198  0.00  0.00     0.012 A 
ENDBRANCH   1  15
TORSDOF 6
