REMARK  9 active torsions:
REMARK  status: ('A' for Active; 'I' for Inactive)
REMARK    1  A    between atoms: C2_2  and  C4_4 
REMARK    2  A    between atoms: C9_9  and  O10_10 
REMARK    3  A    between atoms: O10_10  and  C11_11 
REMARK    4  A    between atoms: C11_11  and  C12_12 
REMARK    5  A    between atoms: C12_12  and  O13_13 
REMARK    6  A    between atoms: C12_12  and  C14_14 
REMARK    7  A    between atoms: C14_14  and  O15_15 
REMARK    8  A    between atoms: O15_15  and  C16_16 
REMARK    9  A    between atoms: C25_25  and  C26_26 
ROOT
ATOM      1  C12 <0> d          -8.432   3.553  -0.814  0.00  0.00     0.166 C 
ENDROOT
BRANCH   1   2
ATOM      2  C11 <0> d          -7.149   4.386  -0.867  0.00  0.00     0.209 C 
BRANCH   2   3
ATOM      3  O10 <0> d          -6.028   3.553  -0.564  0.00  0.00    -0.347 OA
BRANCH   3   4
ATOM      4  C9  <0> d          -4.805   4.141  -0.568  0.00  0.00     0.085 A 
ATOM      5  C8  <0> d          -3.659   3.390  -0.281  0.00  0.00     0.081 A 
ATOM      6  C6  <0> d          -3.737   1.950   0.020  0.00  0.00     0.190 C 
ATOM      7  C33 <0> d          -2.392   4.001  -0.275  0.00  0.00     0.093 A 
ATOM      8  C5  <0> d          -2.453   1.220   0.026  0.00  0.00     0.100 C 
ATOM      9  O7  <0> d          -4.796   1.395   0.250  0.00  0.00    -0.287 OA
ATOM     10  C4  <0> d          -1.307   1.941   0.019  0.00  0.00     0.156 C 
ATOM     11  O34 <0> d          -1.293   3.281   0.026  0.00  0.00    -0.303 OA
ATOM     12  C32 <0> d          -2.294   5.356  -0.571  0.00  0.00     0.038 A 
ATOM     13  C31 <0> d          -3.428   6.086  -0.857  0.00  0.00     0.006 A 
ATOM     14  C30 <0> d          -4.678   5.489  -0.856  0.00  0.00     0.038 A 
BRANCH  10  15
ATOM     15  C2  <0> d          -0.015   1.218   0.009  0.00  0.00     0.234 C 
ATOM     16  O1  <0> d           0.002  -0.004   0.002  0.00  0.00    -0.642 OA
ATOM     17  O3  <0> d           1.036   1.843   0.002  0.00  0.00    -0.642 OA
ENDBRANCH  10  15
ENDBRANCH   3   4
ENDBRANCH   2   3
ENDBRANCH   1   2
BRANCH   1  18
ATOM     18  O13 <0> d          -8.649   3.098   0.523  0.00  0.00    -0.391 OA
ATOM     19  H39 <0> d          -8.744   3.810   1.170  0.00  0.00     0.210 HD
ENDBRANCH   1  18
BRANCH   1  20
ATOM     20  C14 <0> d          -9.617   4.413  -1.259  0.00  0.00     0.209 C 
BRANCH  20  21
ATOM     21  O15 <0> d         -10.794   3.606  -1.322  0.00  0.00    -0.347 OA
BRANCH  21  22
ATOM     22  C16 <0> d         -11.942   4.220  -1.703  0.00  0.00     0.085 A 
ATOM     23  C21 <0> d         -13.136   3.495  -1.788  0.00  0.00     0.081 A 
ATOM     24  C20 <0> d         -14.332   4.135  -2.165  0.00  0.00     0.093 A 
ATOM     25  C22 <0> d         -13.188   2.054  -1.483  0.00  0.00     0.190 C 
ATOM     26  C19 <0> d         -14.303   5.489  -2.477  0.00  0.00     0.038 A 
ATOM     27  O29 <0> d         -15.484   3.441  -2.225  0.00  0.00    -0.303 OA
ATOM     28  C18 <0> d         -13.118   6.192  -2.403  0.00  0.00     0.006 A 
ATOM     29  C17 <0> d         -11.943   5.568  -2.018  0.00  0.00     0.038 A 
ATOM     30  C25 <0> d         -15.501   2.102  -2.224  0.00  0.00     0.156 C 
ATOM     31  C24 <0> d         -14.428   1.354  -1.871  0.00  0.00     0.100 C 
ATOM     32  O23 <0> d         -12.262   1.476  -0.942  0.00  0.00    -0.287 OA
BRANCH  30  33
ATOM     33  C26 <0> d         -16.745   1.409  -2.631  0.00  0.00     0.234 C 
ATOM     34  O27 <0> d         -16.788   0.187  -2.643  0.00  0.00    -0.642 OA
ATOM     35  O28 <0> d         -17.729   2.058  -2.954  0.00  0.00    -0.642 OA
ENDBRANCH  30  33
ENDBRANCH  21  22
ENDBRANCH  20  21
ENDBRANCH   1  20
TORSDOF 9
