REMARK  5 active torsions:
REMARK  status: ('A' for Active; 'I' for Inactive)
REMARK    1  A    between atoms: C5_5  and  C6_6 
REMARK    2  A    between atoms: C6_6  and  O7_7 
REMARK    3  A    between atoms: C8_8  and  C9_9 
REMARK    4  A    between atoms: C9_9  and  O10_10 
REMARK    5  A    between atoms: C11_11  and  O12_12 
ROOT
ATOM      1  C1  <0> d          -0.018   1.503   0.010  0.00  0.00     0.073 C 
ATOM      2  C2  <0> d           0.002  -0.004   0.002  0.00  0.00     0.064 A 
ATOM      3  N3  <0> d           0.005  -0.650  -1.147  0.00  0.00    -0.262 NA
ATOM      4  C4  <0> d           0.024  -1.968  -1.203  0.00  0.00     0.127 A 
ATOM      5  C5  <0> d           0.040  -2.727  -0.048  0.00  0.00    -0.006 A 
ATOM      6  C8  <0> d           0.037  -2.088   1.181  0.00  0.00     0.010 A 
ATOM      7  C11 <0> d           0.023  -0.697   1.204  0.00  0.00     0.099 A 
ENDROOT
BRANCH   5   8
ATOM      8  C6  <0> d           0.061  -4.231  -0.126  0.00  0.00     0.205 C 
BRANCH   8   9
ATOM      9  O7  <0> d           0.060  -4.638  -1.495  0.00  0.00    -0.396 OA
ATOM     10  H19 <0> d           0.073  -5.597  -1.621  0.00  0.00     0.209 HD
ENDBRANCH   8   9
ENDBRANCH   5   8
BRANCH   6  11
ATOM     11  C9  <0> d           0.055  -2.880   2.463  0.00  0.00     0.206 C 
BRANCH  11  12
ATOM     12  O10 <0> d           1.407  -3.112   2.861  0.00  0.00    -0.396 OA
ATOM     13  H22 <0> d           1.495  -3.617   3.681  0.00  0.00     0.209 HD
ENDBRANCH  11  12
ENDBRANCH   6  11
BRANCH   7  14
ATOM     14  O12 <0> d           0.019  -0.027   2.386  0.00  0.00    -0.358 OA
ATOM     15  H23 <0> d           0.902   0.176   2.726  0.00  0.00     0.217 HD
ENDBRANCH   7  14
TORSDOF 5
