REMARK  4 active torsions:
REMARK  status: ('A' for Active; 'I' for Inactive)
REMARK    1  A    between atoms: C6_6  and  N7_7 
REMARK    2  A    between atoms: C11_11  and  N13_12 
REMARK    3  A    between atoms: N18_17  and  C19_18 
REMARK    4  A    between atoms: C19_18  and  C20_19 
ROOT
ATOM      1  C20 ZIN AC000      -0.457  -2.303   3.432  0.00  0.00    -0.019 A 
ATOM      2  C21 ZIN AC000       0.288  -3.401   3.806  0.00  0.00     0.010 A 
ATOM      3  C22 ZIN AC000       1.116  -3.335   4.913  0.00  0.00     0.001 A 
ATOM      4  C23 ZIN AC000       1.202  -2.169   5.652  0.00  0.00     0.002 A 
ATOM      5  C24 ZIN AC000       0.461  -1.063   5.290  0.00  0.00     0.023 A 
ATOM      6  C25 ZIN AC000      -0.371  -1.120   4.170  0.00  0.00     0.052 A 
ATOM      7  C26 ZIN AC000      -1.142   0.024   3.788  0.00  0.00     0.100 C 
ATOM      8  N27 ZIN AC000      -1.754   0.932   3.485  0.00  0.00    -0.191 NA
ENDROOT
BRANCH   1   9
ATOM      9  C19 ZIN AC000      -1.358  -2.376   2.226  0.00  0.00     0.175 C 
BRANCH   9  10
ATOM     10  N18 ZIN AC000      -0.611  -1.970   1.033  0.00  0.00    -0.281 N 
ATOM     11  C6  ZIN AC000       0.104  -2.905   0.324  0.00  0.00     0.115 A 
ATOM     12  C5  ZIN AC000       0.798  -2.517  -0.788  0.00  0.00     0.123 A 
ATOM     13  C3  ZIN AC000       0.762  -1.169  -1.178  0.00  0.00     0.254 A 
ATOM     14  N2  ZIN AC000       0.048  -0.285  -0.454  0.00  0.00    -0.271 N 
ATOM     15  O4  ZIN AC000       1.374  -0.800  -2.166  0.00  0.00    -0.268 OA
ATOM     16  C1  ZIN AC000       0.008   1.122  -0.859  0.00  0.00     0.164 C 
ATOM     17  C28 ZIN AC000      -0.625  -0.683   0.641  0.00  0.00     0.333 A 
ATOM     18  O29 ZIN AC000      -1.264   0.131   1.280  0.00  0.00    -0.246 OA
BRANCH  11  19
ATOM     19  N7  ZIN AC000       0.122  -4.215   0.729  0.00  0.00    -0.365 N 
ATOM     20  C17 ZIN AC000      -1.132  -4.934   0.992  0.00  0.00     0.157 C 
ATOM     21  C11 ZIN AC000      -1.135  -6.228   0.164  0.00  0.00     0.201 C 
ATOM     22  C10 ZIN AC000       0.128  -7.032   0.479  0.00  0.00     0.036 C 
ATOM     23  C9  ZIN AC000       1.364  -6.216   0.092  0.00  0.00     0.022 C 
ATOM     24  C8  ZIN AC000       1.395  -4.924   0.914  0.00  0.00     0.124 C 
BRANCH  21  25
ATOM     25  N13 ZIN AC000      -2.321  -7.025   0.506  0.00  0.00    -0.073 N 
ATOM     26  H14 ZIN AC000      -2.303  -7.250   1.490  0.00  0.00     0.274 HD
ATOM     27  H15 ZIN AC000      -3.154  -6.495   0.298  0.00  0.00     0.274 HD
ATOM     28  H16 ZIN AC000      -2.321  -7.877  -0.034  0.00  0.00     0.274 HD
ENDBRANCH  21  25
ENDBRANCH  11  19
ENDBRANCH   9  10
ENDBRANCH   1   9
TORSDOF 4
