REMARK  9 active torsions:
REMARK  status: ('A' for Active; 'I' for Inactive)
REMARK    1  A    between atoms: C2_2  and  C3_3 
REMARK    2  A    between atoms: C3_3  and  C4_4 
REMARK    3  A    between atoms: C4_4  and  N5_5 
REMARK    4  A    between atoms: N5_5  and  C6_6 
REMARK    5  A    between atoms: C9_9  and  C10_10 
REMARK    6  A    between atoms: C10_10  and  O12_12 
REMARK    7  A    between atoms: O12_12  and  C13_13 
REMARK    8  A    between atoms: C13_13  and  C14_14 
REMARK    9  A    between atoms: C14_14  and  N15_15 
ROOT
ATOM      1  C6  ZIN AC000      -3.022  -3.941   0.010  0.00  0.00     0.028 A 
ATOM      2  C7  ZIN AC000      -1.951  -4.830   0.001  0.00  0.00     0.030 A 
ATOM      3  C8  ZIN AC000      -2.179  -6.181  -0.005  0.00  0.00     0.020 A 
ATOM      4  C9  ZIN AC000      -3.491  -6.667  -0.000  0.00  0.00     0.039 A 
ATOM      5  C18 ZIN AC000      -4.565  -5.771   0.009  0.00  0.00     0.020 A 
ATOM      6  C19 ZIN AC000      -4.329  -4.421   0.020  0.00  0.00     0.030 A 
ENDROOT
BRANCH   4   7
ATOM      7  C10 ZIN AC000      -3.741  -8.120  -0.005  0.00  0.00     0.293 C 
ATOM      8  O11 ZIN AC000      -2.806  -8.897  -0.013  0.00  0.00    -0.259 OA
BRANCH   7   9
ATOM      9  O12 ZIN AC000      -5.005  -8.586  -0.001  0.00  0.00    -0.316 OA
BRANCH   9  10
ATOM     10  C13 ZIN AC000      -5.176 -10.028  -0.007  0.00  0.00     0.209 C 
BRANCH  10  11
ATOM     11  C14 ZIN AC000      -6.668 -10.365  -0.001  0.00  0.00     0.298 C 
BRANCH  11  12
ATOM     12  N15 ZIN AC000      -7.280  -9.896  -1.251  0.00  0.00     0.082 N 
ATOM     13  C16 ZIN AC000      -6.758 -10.642  -2.405  0.00  0.00     0.309 C 
ATOM     14  C17 ZIN AC000      -8.745  -9.986  -1.186  0.00  0.00     0.309 C 
ENDBRANCH  11  12
ENDBRANCH  10  11
ENDBRANCH   9  10
ENDBRANCH   7   9
ENDBRANCH   4   7
BRANCH   1  15
ATOM     15  N5  ZIN AC000      -2.787  -2.571   0.015  0.00  0.00    -0.390 N 
ATOM     16  H29 ZIN AC000      -3.533  -1.950   0.025  0.00  0.00     0.159 HD
BRANCH  15  17
ATOM     17  C4  ZIN AC000      -1.413  -2.063   0.004  0.00  0.00     0.119 C 
BRANCH  17  18
ATOM     18  C3  ZIN AC000      -1.433  -0.534   0.013  0.00  0.00     0.019 C 
BRANCH  18  19
ATOM     19  C2  ZIN AC000       0.002  -0.004   0.002  0.00  0.00    -0.003 C 
ATOM     20  C1  ZIN AC000      -0.019   1.526   0.010  0.00  0.00     0.005 C 
ENDBRANCH  18  19
ENDBRANCH  17  18
ENDBRANCH  15  17
ENDBRANCH   1  15
TORSDOF 9
