REMARK  13 active torsions:
REMARK  status: ('A' for Active; 'I' for Inactive)
REMARK    1  A    between atoms: C2_2  and  O3_3 
REMARK    2  A    between atoms: O3_3  and  C4_4 
REMARK    3  A    between atoms: C10_10  and  C11_11 
REMARK    4  A    between atoms: C11_11  and  O13_13 
REMARK    5  A    between atoms: O13_13  and  C14_14 
REMARK    6  A    between atoms: C14_14  and  O17_16 
REMARK    7  A    between atoms: O17_16  and  C18_17 
REMARK    8  A    between atoms: C18_17  and  O20_19 
REMARK    9  A    between atoms: O20_19  and  C21_20 
REMARK   10  A    between atoms: N28_27  and  C29_28 
REMARK   11  A    between atoms: C29_28  and  C30_29 
REMARK   12  A    between atoms: C33_32  and  C34_33 
REMARK   13  A    between atoms: C39_38  and  C40_39 
ROOT
ATOM      1  C4  ZIN AC000       4.122   5.393  -1.220  0.00  0.00     0.249 A 
ATOM      2  N5  ZIN AC000       3.286   6.397  -1.179  0.00  0.00    -0.206 NA
ATOM      3  C6  ZIN AC000       2.042   5.940  -0.876  0.00  0.00     0.089 A 
ATOM      4  C7  ZIN AC000       0.805   6.565  -0.708  0.00  0.00     0.034 A 
ATOM      5  C8  ZIN AC000      -0.312   5.817  -0.395  0.00  0.00     0.003 A 
ATOM      6  C9  ZIN AC000      -0.225   4.446  -0.250  0.00  0.00     0.020 A 
ATOM      7  C10 ZIN AC000       1.001   3.798  -0.406  0.00  0.00     0.069 A 
ATOM      8  C27 ZIN AC000       2.142   4.547  -0.724  0.00  0.00     0.083 A 
ATOM      9  N28 ZIN AC000       3.464   4.229  -0.946  0.00  0.00    -0.304 N 
ENDROOT
BRANCH   9  10
ATOM     10  C29 ZIN AC000       4.054   2.889  -0.897  0.00  0.00     0.171 C 
BRANCH  10  11
ATOM     11  C30 ZIN AC000       4.122   2.319  -2.291  0.00  0.00    -0.040 A 
ATOM     12  C46 ZIN AC000       5.282   2.451  -3.033  0.00  0.00     0.010 A 
ATOM     13  C45 ZIN AC000       5.351   1.930  -4.309  0.00  0.00     0.013 A 
ATOM     14  C33 ZIN AC000       4.248   1.271  -4.850  0.00  0.00    -0.025 A 
ATOM     15  C32 ZIN AC000       3.082   1.142  -4.097  0.00  0.00     0.013 A 
ATOM     16  C31 ZIN AC000       3.027   1.662  -2.820  0.00  0.00     0.010 A 
BRANCH  14  17
ATOM     17  C34 ZIN AC000       4.315   0.710  -6.220  0.00  0.00    -0.012 A 
ATOM     18  C39 ZIN AC000       3.930  -0.619  -6.458  0.00  0.00     0.026 A 
ATOM     19  C38 ZIN AC000       3.991  -1.133  -7.750  0.00  0.00     0.016 A 
ATOM     20  C37 ZIN AC000       4.441  -0.340  -8.787  0.00  0.00     0.001 A 
ATOM     21  C36 ZIN AC000       4.826   0.968  -8.552  0.00  0.00     0.001 A 
ATOM     22  C35 ZIN AC000       4.765   1.495  -7.277  0.00  0.00     0.013 A 
BRANCH  18  23
ATOM     23  C40 ZIN AC000       3.454  -1.469  -5.339  0.00  0.00     0.207 A 
ATOM     24  N44 ZIN AC000       3.060  -2.736  -5.417  0.00  0.00    -0.106 NA
ATOM     25  N43 ZIN AC000       2.724  -3.112  -4.231  0.00  0.00    -0.021 NA
ATOM     26  N42 ZIN AC000       2.892  -2.131  -3.414  0.00  0.00    -0.021 NA
ATOM     27  N41 ZIN AC000       3.344  -1.113  -4.064  0.00  0.00    -0.106 NA
ENDBRANCH  18  23
ENDBRANCH  14  17
ENDBRANCH  10  11
ENDBRANCH   9  10
BRANCH   1  28
ATOM     28  O3  ZIN AC000       5.444   5.493  -1.493  0.00  0.00    -0.321 OA
BRANCH  28  29
ATOM     29  C2  ZIN AC000       5.955   6.801  -1.756  0.00  0.00     0.174 C 
ATOM     30  C1  ZIN AC000       7.455   6.715  -2.042  0.00  0.00     0.034 C 
ENDBRANCH  28  29
ENDBRANCH   1  28
BRANCH   7  31
ATOM     31  C11 ZIN AC000       1.095   2.336  -0.244  0.00  0.00     0.298 C 
ATOM     32  O12 ZIN AC000       1.832   1.864   0.599  0.00  0.00    -0.259 OA
BRANCH  31  33
ATOM     33  O13 ZIN AC000       0.363   1.523  -1.030  0.00  0.00    -0.285 OA
BRANCH  33  34
ATOM     34  C14 ZIN AC000       0.415   0.101  -0.739  0.00  0.00     0.277 C 
ATOM     35  C16 ZIN AC000      -0.358  -0.668  -1.811  0.00  0.00     0.072 C 
BRANCH  34  36
ATOM     36  O17 ZIN AC000      -0.182  -0.148   0.561  0.00  0.00    -0.266 OA
BRANCH  36  37
ATOM     37  C18 ZIN AC000      -1.488   0.143   0.699  0.00  0.00     0.409 C 
ATOM     38  O19 ZIN AC000      -2.092   0.673  -0.212  0.00  0.00    -0.229 OA
BRANCH  37  39
ATOM     39  O20 ZIN AC000      -2.126  -0.154   1.846  0.00  0.00    -0.293 OA
BRANCH  39  40
ATOM     40  C21 ZIN AC000      -3.535   0.189   1.924  0.00  0.00     0.134 C 
ATOM     41  C26 ZIN AC000      -4.249  -0.799   2.849  0.00  0.00     0.032 C 
ATOM     42  C25 ZIN AC000      -5.734  -0.438   2.931  0.00  0.00     0.002 C 
ATOM     43  C24 ZIN AC000      -5.884   0.980   3.486  0.00  0.00     0.000 C 
ATOM     44  C23 ZIN AC000      -5.170   1.968   2.561  0.00  0.00     0.002 C 
ATOM     45  C22 ZIN AC000      -3.685   1.607   2.479  0.00  0.00     0.032 C 
ENDBRANCH  39  40
ENDBRANCH  37  39
ENDBRANCH  36  37
ENDBRANCH  34  36
ENDBRANCH  33  34
ENDBRANCH  31  33
ENDBRANCH   7  31
TORSDOF 13
