REMARK  11 active torsions:
REMARK  status: ('A' for Active; 'I' for Inactive)
REMARK    1  A    between atoms: C2_2  and  O3_3 
REMARK    2  A    between atoms: C2_2  and  C23_22 
REMARK    3  A    between atoms: O3_3  and  C4_4 
REMARK    4  A    between atoms: N7_6  and  C8_7 
REMARK    5  A    between atoms: C8_7  and  C9_8 
REMARK    6  A    between atoms: C9_8  and  C10_9 
REMARK    7  A    between atoms: C10_9  and  O11_10 
REMARK    8  A    between atoms: O11_10  and  C12_11 
REMARK    9  A    between atoms: C23_22  and  O24_23 
REMARK   10  A    between atoms: C23_22  and  C25_24 
REMARK   11  A    between atoms: C23_22  and  C30_29 
ROOT
ATOM      1  C4  ZIN AC000       2.367   1.117  -0.015  0.00  0.00     0.162 C 
ATOM      2  C6  ZIN AC000       2.791   0.857  -1.462  0.00  0.00     0.270 C 
ATOM      3  N7  ZIN AC000       4.113   1.436  -1.709  0.00  0.00    -0.065 N 
ATOM      4  C18 ZIN AC000       4.085   2.887  -1.514  0.00  0.00     0.238 C 
ATOM      5  C19 ZIN AC000       3.705   3.215  -0.069  0.00  0.00     0.035 C 
ATOM      6  C20 ZIN AC000       3.478   1.901   0.696  0.00  0.00     0.020 C 
ATOM      7  C21 ZIN AC000       4.770   1.075   0.632  0.00  0.00     0.035 C 
ATOM      8  C22 ZIN AC000       5.117   0.818  -0.840  0.00  0.00     0.238 C 
ENDROOT
BRANCH   1   9
ATOM      9  O3  ZIN AC000       1.139   1.891   0.001  0.00  0.00    -0.311 OA
BRANCH   9  10
ATOM     10  C2  ZIN AC000      -0.014   1.204   0.009  0.00  0.00     0.305 C 
ATOM     11  O1  ZIN AC000       0.002  -0.004   0.002  0.00  0.00    -0.261 OA
BRANCH  10  12
ATOM     12  C23 ZIN AC000      -1.329   1.940   0.019  0.00  0.00     0.213 C 
BRANCH  12  13
ATOM     13  O24 ZIN AC000      -1.203   3.131   0.798  0.00  0.00    -0.370 OA
ATOM     14  H57 ZIN AC000      -0.956   2.974   1.719  0.00  0.00     0.212 HD
ENDBRANCH  12  13
BRANCH  12  15
ATOM     15  C25 ZIN AC000      -1.714   2.301  -1.393  0.00  0.00     0.032 A 
ATOM     16  S29 ZIN AC000      -2.672   1.294  -2.471  0.00  0.00    -0.102 SA
ATOM     17  C28 ZIN AC000      -2.563   2.503  -3.744  0.00  0.00     0.050 A 
ATOM     18  C27 ZIN AC000      -1.844   3.542  -3.315  0.00  0.00     0.008 A 
ATOM     19  C26 ZIN AC000      -1.375   3.430  -2.017  0.00  0.00     0.019 A 
ENDBRANCH  12  15
BRANCH  12  20
ATOM     20  C30 ZIN AC000      -2.394   1.058   0.620  0.00  0.00     0.032 A 
ATOM     21  S34 ZIN AC000      -3.413  -0.058  -0.280  0.00  0.00    -0.102 SA
ATOM     22  C33 ZIN AC000      -4.230  -0.550   1.197  0.00  0.00     0.050 A 
ATOM     23  C32 ZIN AC000      -3.724   0.121   2.233  0.00  0.00     0.008 A 
ATOM     24  C31 ZIN AC000      -2.711   1.008   1.914  0.00  0.00     0.019 A 
ENDBRANCH  12  20
ENDBRANCH  10  12
ENDBRANCH   9  10
ENDBRANCH   1   9
BRANCH   3  25
ATOM     25  C8  ZIN AC000       4.482   1.172  -3.106  0.00  0.00     0.239 C 
BRANCH  25  26
ATOM     26  C9  ZIN AC000       5.863   1.768  -3.390  0.00  0.00     0.055 C 
BRANCH  26  27
ATOM     27  C10 ZIN AC000       6.247   1.493  -4.846  0.00  0.00     0.177 C 
BRANCH  27  28
ATOM     28  O11 ZIN AC000       7.536   2.050  -5.111  0.00  0.00    -0.351 OA
BRANCH  28  29
ATOM     29  C12 ZIN AC000       8.029   1.893  -6.368  0.00  0.00     0.068 A 
ATOM     30  C17 ZIN AC000       9.275   2.408  -6.695  0.00  0.00     0.037 A 
ATOM     31  C16 ZIN AC000       9.777   2.242  -7.971  0.00  0.00     0.003 A 
ATOM     32  C15 ZIN AC000       9.033   1.573  -8.926  0.00  0.00     0.000 A 
ATOM     33  C14 ZIN AC000       7.788   1.064  -8.604  0.00  0.00     0.003 A 
ATOM     34  C13 ZIN AC000       7.285   1.222  -7.327  0.00  0.00     0.037 A 
ENDBRANCH  28  29
ENDBRANCH  27  28
ENDBRANCH  26  27
ENDBRANCH  25  26
ENDBRANCH   3  25
TORSDOF 11
