REMARK  10 active torsions:
REMARK  status: ('A' for Active; 'I' for Inactive)
REMARK    1  A    between atoms: O2_2  and  C3_3 
REMARK    2  A    between atoms: C5_5  and  C6_6 
REMARK    3  A    between atoms: C6_6  and  N7_7 
REMARK       I    between atoms: N7_7  and  C8_8 
REMARK    4  A    between atoms: C8_8  and  C10_10 
REMARK    5  A    between atoms: C10_10  and  C11_11 
REMARK    6  A    between atoms: C11_11  and  C12_12 
REMARK    7  A    between atoms: C12_12  and  C13_13 
REMARK    8  A    between atoms: C13_13  and  C14_14 
REMARK    9  A    between atoms: C15_15  and  C16_16 
REMARK   10  A    between atoms: C21_21  and  O22_22 
ROOT
ATOM      1  N7  ZIN AC000       3.803   0.656  -3.902  0.00  0.00    -0.357 N 
ATOM      2  C8  ZIN AC000       4.559   1.392  -4.741  0.00  0.00     0.217 C 
ATOM      3  O9  ZIN AC000       4.079   1.824  -5.768  0.00  0.00    -0.274 OA
ATOM      4  H29 ZIN AC000       4.187   0.311  -3.081  0.00  0.00     0.162 HD
ENDROOT
BRANCH   1   5
ATOM      5  C6  ZIN AC000       2.403   0.379  -4.230  0.00  0.00     0.161 C 
BRANCH   5   6
ATOM      6  C5  ZIN AC000       1.787  -0.457  -3.137  0.00  0.00    -0.038 A 
ATOM      7  C4  ZIN AC000       1.173   0.159  -2.062  0.00  0.00     0.048 A 
ATOM      8  C3  ZIN AC000       0.606  -0.608  -1.056  0.00  0.00     0.101 A 
ATOM      9  C21 ZIN AC000       0.662  -1.996  -1.129  0.00  0.00     0.099 A 
ATOM     10  C20 ZIN AC000       1.274  -2.606  -2.212  0.00  0.00     0.040 A 
ATOM     11  C19 ZIN AC000       1.838  -1.836  -3.212  0.00  0.00     0.012 A 
BRANCH   8  12
ATOM     12  O2  ZIN AC000       0.002  -0.004   0.002  0.00  0.00    -0.353 OA
ATOM     13  C1  ZIN AC000      -0.017   1.425   0.010  0.00  0.00     0.210 C 
ENDBRANCH   8  12
BRANCH   9  14
ATOM     14  O22 ZIN AC000       0.107  -2.753  -0.145  0.00  0.00    -0.358 OA
ATOM     15  H49 ZIN AC000       0.715  -2.971   0.575  0.00  0.00     0.217 HD
ENDBRANCH   9  14
ENDBRANCH   5   6
ENDBRANCH   1   5
BRANCH   2  16
ATOM     16  C10 ZIN AC000       6.000   1.678  -4.404  0.00  0.00     0.103 C 
BRANCH  16  17
ATOM     17  C11 ZIN AC000       6.625   2.526  -5.513  0.00  0.00     0.010 C 
BRANCH  17  18
ATOM     18  C12 ZIN AC000       8.088   2.816  -5.171  0.00  0.00     0.004 C 
BRANCH  18  19
ATOM     19  C13 ZIN AC000       8.713   3.664  -6.280  0.00  0.00     0.027 C 
BRANCH  19  20
ATOM     20  C14 ZIN AC000      10.153   3.949  -5.943  0.00  0.00    -0.030 C 
ATOM     21  C15 ZIN AC000      11.099   3.639  -6.795  0.00  0.00    -0.027 C 
BRANCH  21  22
ATOM     22  C16 ZIN AC000      12.540   3.925  -6.457  0.00  0.00    -0.001 C 
ATOM     23  C17 ZIN AC000      13.332   2.615  -6.453  0.00  0.00     0.013 C 
ATOM     24  C18 ZIN AC000      13.130   4.874  -7.502  0.00  0.00     0.013 C 
ENDBRANCH  21  22
ENDBRANCH  19  20
ENDBRANCH  18  19
ENDBRANCH  17  18
ENDBRANCH  16  17
ENDBRANCH   2  16
TORSDOF 10
