REMARK  9 active torsions:
REMARK  status: ('A' for Active; 'I' for Inactive)
REMARK    1  A    between atoms: C2_2  and  N3_3 
REMARK    2  A    between atoms: N3_3  and  C5_5 
REMARK    3  A    between atoms: N3_3  and  C7_7 
REMARK    4  A    between atoms: C7_7  and  C8_8 
REMARK    5  A    between atoms: C8_8  and  O9_9 
REMARK    6  A    between atoms: O9_9  and  C10_10 
REMARK    7  A    between atoms: C13_13  and  C14_14 
REMARK    8  A    between atoms: C14_14  and  C23_23 
REMARK    9  A    between atoms: C15_15  and  C17_17 
ROOT
ATOM      1  C10 ZIN AC000       3.529  -1.421  -1.880  0.00  0.00     0.068 A 
ATOM      2  C11 ZIN AC000       3.492  -2.274  -2.975  0.00  0.00     0.037 A 
ATOM      3  C12 ZIN AC000       4.612  -2.436  -3.762  0.00  0.00     0.015 A 
ATOM      4  C13 ZIN AC000       5.784  -1.742  -3.457  0.00  0.00    -0.023 A 
ATOM      5  C29 ZIN AC000       5.816  -0.885  -2.355  0.00  0.00     0.015 A 
ATOM      6  C30 ZIN AC000       4.691  -0.723  -1.577  0.00  0.00     0.037 A 
ENDROOT
BRANCH   4   7
ATOM      7  C14 ZIN AC000       6.988  -1.913  -4.299  0.00  0.00     0.007 C 
ATOM      8  C15 ZIN AC000       6.975  -1.503  -5.593  0.00  0.00     0.056 C 
ATOM      9 Cl16 ZIN AC000       5.606  -0.635  -6.215  0.00  0.00    -0.082 Cl
BRANCH   8  10
ATOM     10  C17 ZIN AC000       8.121  -1.794  -6.468  0.00  0.00    -0.014 A 
ATOM     11  C22 ZIN AC000       8.689  -0.778  -7.244  0.00  0.00     0.013 A 
ATOM     12  C21 ZIN AC000       9.767  -1.058  -8.057  0.00  0.00     0.001 A 
ATOM     13  C20 ZIN AC000      10.278  -2.343  -8.117  0.00  0.00     0.000 A 
ATOM     14  C19 ZIN AC000       9.718  -3.355  -7.357  0.00  0.00     0.001 A 
ATOM     15  C18 ZIN AC000       8.644  -3.090  -6.534  0.00  0.00     0.013 A 
ENDBRANCH   8  10
BRANCH   7  16
ATOM     16  C23 ZIN AC000       8.207  -2.530  -3.731  0.00  0.00    -0.023 A 
ATOM     17  C28 ZIN AC000       9.369  -1.774  -3.577  0.00  0.00     0.012 A 
ATOM     18  C27 ZIN AC000      10.501  -2.355  -3.042  0.00  0.00     0.001 A 
ATOM     19  C26 ZIN AC000      10.487  -3.687  -2.668  0.00  0.00     0.000 A 
ATOM     20  C25 ZIN AC000       9.340  -4.444  -2.824  0.00  0.00     0.001 A 
ATOM     21  C24 ZIN AC000       8.200  -3.874  -3.352  0.00  0.00     0.012 A 
ENDBRANCH   7  16
ENDBRANCH   4   7
BRANCH   1  22
ATOM     22  O9  ZIN AC000       2.423  -1.263  -1.106  0.00  0.00    -0.350 OA
BRANCH  22  23
ATOM     23  C8  ZIN AC000       1.262  -2.010  -1.475  0.00  0.00     0.203 C 
BRANCH  23  24
ATOM     24  C7  ZIN AC000       0.127  -1.705  -0.495  0.00  0.00     0.261 C 
BRANCH  24  25
ATOM     25  N3  ZIN AC000      -0.263  -0.294  -0.622  0.00  0.00    -0.070 N 
ATOM     26  H4  ZIN AC000       0.548   0.291  -0.492  0.00  0.00     0.279 HD
BRANCH  25  27
ATOM     27  C2  ZIN AC000      -0.829  -0.060  -1.957  0.00  0.00     0.230 C 
ATOM     28  C1  ZIN AC000      -1.118   1.432  -2.134  0.00  0.00     0.034 C 
ENDBRANCH  25  27
BRANCH  25  29
ATOM     29  C5  ZIN AC000      -1.268   0.029   0.400  0.00  0.00     0.230 C 
ATOM     30  C6  ZIN AC000      -0.638  -0.085   1.789  0.00  0.00     0.034 C 
ENDBRANCH  25  29
ENDBRANCH  24  25
ENDBRANCH  23  24
ENDBRANCH  22  23
ENDBRANCH   1  22
TORSDOF 9
