REMARK  11 active torsions:
REMARK  status: ('A' for Active; 'I' for Inactive)
REMARK    1  A    between atoms: O2_2  and  C3_3 
REMARK    2  A    between atoms: C3_3  and  C4_4 
REMARK    3  A    between atoms: C4_4  and  C5_5 
REMARK    4  A    between atoms: C5_5  and  C6_6 
REMARK    5  A    between atoms: C6_6  and  C7_7 
REMARK    6  A    between atoms: C7_7  and  C13_13 
REMARK    7  A    between atoms: N8_8  and  O9_9 
REMARK    8  A    between atoms: O9_9  and  C10_10 
REMARK    9  A    between atoms: C10_10  and  C11_11 
REMARK   10  A    between atoms: C11_11  and  N12_12 
REMARK   11  A    between atoms: C16_16  and  C17_17 
ROOT
ATOM      1  C7  <0> d           1.931  -4.938  -3.319  0.00  0.00     0.072 C 
ATOM      2  N8  <0> d           2.522  -4.255  -4.244  0.00  0.00    -0.138 NA
ENDROOT
BRANCH   1   3
ATOM      3  C6  <0> d           1.266  -4.229  -2.167  0.00  0.00     0.062 C 
BRANCH   3   4
ATOM      4  C5  <0> d          -0.190  -3.925  -2.529  0.00  0.00     0.008 C 
BRANCH   4   5
ATOM      5  C4  <0> d          -0.899  -3.313  -1.319  0.00  0.00     0.027 C 
BRANCH   5   6
ATOM      6  C3  <0> d          -2.354  -3.009  -1.680  0.00  0.00     0.167 C 
BRANCH   6   7
ATOM      7  O2  <0> d          -3.016  -2.437  -0.550  0.00  0.00    -0.396 OA
ATOM      8  C1  <0> d          -4.388  -2.114  -0.783  0.00  0.00     0.201 C 
ENDBRANCH   6   7
ENDBRANCH   5   6
ENDBRANCH   4   5
ENDBRANCH   3   4
ENDBRANCH   1   3
BRANCH   1   9
ATOM      9  C13 <0> d           1.909  -6.413  -3.390  0.00  0.00    -0.009 A 
ATOM     10  C22 <0> d           2.524  -7.073  -4.455  0.00  0.00     0.014 A 
ATOM     11  C21 <0> d           2.504  -8.451  -4.513  0.00  0.00     0.017 A 
ATOM     12  C16 <0> d           1.867  -9.178  -3.524  0.00  0.00     0.048 A 
ATOM     13  C15 <0> d           1.249  -8.530  -2.469  0.00  0.00     0.017 A 
ATOM     14  C14 <0> d           1.266  -7.153  -2.396  0.00  0.00     0.014 A 
BRANCH  12  15
ATOM     15  C17 <0> d           1.844 -10.684  -3.596  0.00  0.00     0.417 C 
ATOM     16  F18 <0> d           0.713 -11.099  -4.307  0.00  0.00    -0.166 F 
ATOM     17  F19 <0> d           2.996 -11.136  -4.247  0.00  0.00    -0.166 F 
ATOM     18  F20 <0> d           1.801 -11.212  -2.302  0.00  0.00    -0.166 F 
ENDBRANCH  12  15
ENDBRANCH   1   9
BRANCH   2  19
ATOM     19  O9  <0> d           2.641  -2.849  -4.120  0.00  0.00    -0.255 OA
BRANCH  19  20
ATOM     20  C10 <0> d           3.316  -2.224  -5.214  0.00  0.00     0.233 C 
BRANCH  20  21
ATOM     21  C11 <0> d           3.386  -0.715  -4.974  0.00  0.00     0.295 C 
BRANCH  21  22
ATOM     22  N12 <0> d           4.221  -0.444  -3.796  0.00  0.00     0.080 N 
ATOM     23  H38 <0> d           4.283   0.547  -3.617  0.00  0.00     0.312 HD
ATOM     24  H39 <0> d           3.875  -0.937  -2.987  0.00  0.00     0.312 HD
ENDBRANCH  21  22
ENDBRANCH  20  21
ENDBRANCH  19  20
ENDBRANCH   2  19
TORSDOF 11
