REMARK  3 active torsions:
REMARK  status: ('A' for Active; 'I' for Inactive)
REMARK    1  A    between atoms: N2_2  and  C5_5 
REMARK    2  A    between atoms: C5_5  and  C8_7 
REMARK    3  A    between atoms: C8_7  and  C9_8 
ROOT
ATOM      1  C8  <0> d           0.842  -2.014   1.121  0.00  0.00     0.071 C 
ENDROOT
BRANCH   1   2
ATOM      2  C5  <0> d           0.713  -0.491   1.192  0.00  0.00     0.185 C 
ATOM      3  C7  <0> d          -0.071  -0.103   2.448  0.00  0.00     0.040 C 
BRANCH   2   4
ATOM      4  N2  <0> d           0.002  -0.004   0.002  0.00  0.00    -0.075 N 
ATOM      5  C1  <0> d          -0.018   1.465   0.010  0.00  0.00     0.267 C 
ATOM      6  H3  <0> d          -0.945  -0.353   0.009  0.00  0.00     0.277 HD
ATOM      7  H4  <0> d           0.474  -0.330  -0.828  0.00  0.00     0.277 HD
ENDBRANCH   2   4
ENDBRANCH   1   2
BRANCH   1   8
ATOM      8  C9  <0> d           1.717  -2.389  -0.047  0.00  0.00    -0.056 A 
ATOM      9  C14 <0> d           3.083  -2.512   0.124  0.00  0.00     0.007 A 
ATOM     10  C13 <0> d           3.885  -2.861  -0.946  0.00  0.00     0.001 A 
ATOM     11  C12 <0> d           3.322  -3.079  -2.190  0.00  0.00     0.000 A 
ATOM     12  C11 <0> d           1.957  -2.950  -2.362  0.00  0.00     0.001 A 
ATOM     13  C10 <0> d           1.154  -2.606  -1.290  0.00  0.00     0.007 A 
ENDBRANCH   1   8
TORSDOF 3
