REMARK  3 active torsions:
REMARK  status: ('A' for Active; 'I' for Inactive)
REMARK    1  A    between atoms: N2_2  and  C4_4 
REMARK    2  A    between atoms: C6_6  and  N7_7 
REMARK    3  A    between atoms: C12_12  and  N13_13 
ROOT
ATOM      1  C4  ZIN AC000      -1.306   1.936   0.019  0.00  0.00     0.107 A 
ATOM      2  C5  ZIN AC000      -1.324   3.319   0.021  0.00  0.00     0.075 A 
ATOM      3  C6  ZIN AC000      -2.528   3.996   0.029  0.00  0.00     0.144 A 
ATOM      4  C10 ZIN AC000      -3.721   3.287   0.037  0.00  0.00     0.173 A 
ATOM      5  O11 ZIN AC000      -4.907   3.950   0.045  0.00  0.00    -0.187 OA
ATOM      6  C12 ZIN AC000      -3.700   1.900   0.035  0.00  0.00     0.144 A 
ATOM      7  C16 ZIN AC000      -2.494   1.228   0.021  0.00  0.00     0.075 A 
ENDROOT
BRANCH   1   8
ATOM      8  N2  ZIN AC000      -0.014   1.214   0.009  0.00  0.00    -0.116 N 
ATOM      9  O1  ZIN AC000       0.002  -0.004   0.002  0.00  0.00    -0.532 OA
ATOM     10  O3  ZIN AC000       1.032   1.837   0.002  0.00  0.00    -0.532 OA
ENDBRANCH   1   8
BRANCH   6  11
ATOM     11  N13 ZIN AC000      -4.971   1.140   0.042  0.00  0.00    -0.113 N 
ATOM     12  O14 ZIN AC000      -4.953  -0.077   0.041  0.00  0.00    -0.532 OA
ATOM     13  O15 ZIN AC000      -6.035   1.734   0.050  0.00  0.00    -0.532 OA
ENDBRANCH   6  11
BRANCH   3  14
ATOM     14  N7  ZIN AC000      -2.546   5.476   0.031  0.00  0.00    -0.113 N 
ATOM     15  O8  ZIN AC000      -1.499   6.098   0.024  0.00  0.00    -0.532 OA
ATOM     16  O9  ZIN AC000      -3.608   6.072   0.039  0.00  0.00    -0.532 OA
ENDBRANCH   3  14
TORSDOF 3
