REMARK  2 active torsions:
REMARK  status: ('A' for Active; 'I' for Inactive)
REMARK    1  A    between atoms: C10_10  and  C11_11 
REMARK    2  A    between atoms: C18_18  and  O20_19 
ROOT
ATOM      1  C1  ZIN AC000       0.563   1.422   0.192  0.00  0.00     0.159 C 
ATOM      2  N2  ZIN AC000       0.322  -0.020   0.105  0.00  0.00    -0.318 N 
ATOM      3  C3  ZIN AC000      -0.994  -0.454   0.162  0.00  0.00     0.049 A 
ATOM      4  C4  ZIN AC000      -1.947   0.298  -0.528  0.00  0.00     0.032 A 
ATOM      5  C5  ZIN AC000      -3.275  -0.069  -0.515  0.00  0.00     0.026 A 
ATOM      6  C6  ZIN AC000      -3.678  -1.194   0.186  0.00  0.00     0.035 A 
ATOM      7 Cl7  ZIN AC000      -5.352  -1.654   0.200  0.00  0.00    -0.084 Cl
ATOM      8  C8  ZIN AC000      -2.752  -1.947   0.872  0.00  0.00     0.040 A 
ATOM      9  C9  ZIN AC000      -1.396  -1.585   0.869  0.00  0.00     0.022 A 
ATOM     10  C10 ZIN AC000      -0.461  -2.438   1.619  0.00  0.00     0.077 C 
ATOM     11  N17 ZIN AC000       0.716  -2.769   1.219  0.00  0.00    -0.247 NA
ATOM     12  C18 ZIN AC000       1.254  -2.308  -0.060  0.00  0.00     0.335 C 
ATOM     13  C21 ZIN AC000       1.384  -0.812  -0.030  0.00  0.00     0.274 C 
ATOM     14  O22 ZIN AC000       2.485  -0.312  -0.122  0.00  0.00    -0.268 OA
ENDROOT
BRANCH  10  15
ATOM     15  C11 ZIN AC000      -0.908  -2.954   2.934  0.00  0.00    -0.007 A 
ATOM     16  C16 ZIN AC000      -1.902  -2.285   3.647  0.00  0.00     0.014 A 
ATOM     17  C15 ZIN AC000      -2.318  -2.773   4.869  0.00  0.00     0.001 A 
ATOM     18  C14 ZIN AC000      -1.743  -3.918   5.391  0.00  0.00     0.000 A 
ATOM     19  C13 ZIN AC000      -0.752  -4.583   4.691  0.00  0.00     0.001 A 
ATOM     20  C12 ZIN AC000      -0.332  -4.108   3.466  0.00  0.00     0.014 A 
ENDBRANCH  10  15
BRANCH  12  21
ATOM     21  O20 ZIN AC000       2.538  -2.896  -0.279  0.00  0.00    -0.367 OA
ATOM     22  H34 ZIN AC000       2.528  -3.862  -0.307  0.00  0.00     0.212 HD
ENDBRANCH  12  21
TORSDOF 2
