REMARK  2 active torsions:
REMARK  status: ('A' for Active; 'I' for Inactive)
REMARK    1  A    between atoms: C2_2  and  N4_4 
REMARK       I    between atoms: N4_4  and  C5_5 
REMARK       I    between atoms: C5_5  and  N9_9 
REMARK       I    between atoms: N9_9  and  C10_10 
REMARK       I    between atoms: C10_10  and  N12_12 
REMARK    2  A    between atoms: N12_12  and  C13_13 
ROOT
ATOM      1  N4  ZIN AC000      -1.090   0.860   3.050  0.00  0.00    -0.222 N 
ATOM      2  C5  ZIN AC000       0.249   0.567   2.943  0.00  0.00     0.686 C 
ATOM      3  N6  ZIN AC000       0.929   0.993   1.917  0.00  0.00    -0.234 N 
ATOM      4  H7  ZIN AC000       1.855   0.727   1.805  0.00  0.00     0.174 HD
ATOM      5  H8  ZIN AC000       0.510   1.576   1.265  0.00  0.00     0.174 HD
ATOM      6  N9  ZIN AC000       0.872  -0.177   3.923  0.00  0.00    -0.021 N 
ATOM      7  C10 ZIN AC000       0.129  -0.737   4.941  0.00  0.00     0.712 C 
ATOM      8  N11 ZIN AC000      -1.135  -0.445   5.062  0.00  0.00    -0.117 NA
ATOM      9  N12 ZIN AC000       0.723  -1.604   5.830  0.00  0.00    -0.190 N 
ATOM     10  H27 ZIN AC000      -1.619   0.459   3.756  0.00  0.00     0.178 HD
ATOM     11  H28 ZIN AC000       1.833  -0.308   3.895  0.00  0.00     0.203 HD
ATOM     12  H29 ZIN AC000      -1.640  -0.780   5.819  0.00  0.00     0.206 HD
ATOM     13  H30 ZIN AC000       0.183  -2.065   6.492  0.00  0.00     0.184 HD
ENDROOT
BRANCH   9  14
ATOM     14  C13 ZIN AC000       2.104  -1.820   5.780  0.00  0.00     0.049 A 
ATOM     15  C19 ZIN AC000       2.612  -3.105   5.921  0.00  0.00     0.032 A 
ATOM     16  C18 ZIN AC000       3.976  -3.316   5.866  0.00  0.00     0.026 A 
ATOM     17  C16 ZIN AC000       4.836  -2.248   5.680  0.00  0.00     0.034 A 
ATOM     18  C15 ZIN AC000       4.332  -0.966   5.545  0.00  0.00     0.026 A 
ATOM     19 Cl17 ZIN AC000       6.550  -2.516   5.618  0.00  0.00    -0.084 Cl
ATOM     20  C14 ZIN AC000       2.969  -0.750   5.595  0.00  0.00     0.032 A 
ENDBRANCH   9  14
BRANCH   1  21
ATOM     21  C2  ZIN AC000      -1.716   1.780   2.097  0.00  0.00     0.091 C 
ATOM     22  C1  ZIN AC000      -2.135   1.008   0.844  0.00  0.00     0.032 C 
ATOM     23  C3  ZIN AC000      -2.950   2.417   2.739  0.00  0.00     0.032 C 
ENDBRANCH   1  21
TORSDOF 2
