REMARK  3 active torsions:
REMARK  status: ('A' for Active; 'I' for Inactive)
REMARK    1  A    between atoms: C5_5  and  N6_6 
REMARK    2  A    between atoms: C9_9  and  S10_10 
REMARK    3  A    between atoms: S10_10  and  C11_11 
ROOT
ATOM      1  C11 <0> d          -1.707  -0.293   3.060  0.00  0.00     0.133 A 
ATOM      2  C12 <0> d          -2.208   0.068   4.331  0.00  0.00     0.139 A 
ATOM      3  N13 <0> d          -1.655   0.412   5.501  0.00  0.00    -0.237 NA
ATOM      4  C14 <0> d          -2.594   0.654   6.378  0.00  0.00     0.209 A 
ATOM      5  N15 <0> d          -3.818   0.477   5.812  0.00  0.00    -0.334 N 
ATOM      6  C16 <0> d          -3.613   0.102   4.506  0.00  0.00     0.161 A 
ATOM      7  N17 <0> d          -4.394  -0.202   3.485  0.00  0.00    -0.222 NA
ATOM      8  C18 <0> d          -3.878  -0.534   2.314  0.00  0.00     0.236 A 
ATOM      9  N19 <0> d          -2.583  -0.576   2.093  0.00  0.00    -0.232 NA
ATOM     10  H25 <0> d          -4.676   0.593   6.250  0.00  0.00     0.168 HD
ENDROOT
BRANCH   1  11
ATOM     11  S10 <0> d           0.028  -0.360   2.757  0.00  0.00    -0.046 SA
BRANCH  11  12
ATOM     12  C9  <0> d           0.024  -0.827   1.110  0.00  0.00     0.132 A 
ATOM     13  N2  <0> d           0.002  -0.004   0.002  0.00  0.00    -0.337 N 
ATOM     14  C1  <0> d          -0.018   1.461   0.010  0.00  0.00     0.158 C 
ATOM     15  C3  <0> d           0.008  -0.795  -1.087  0.00  0.00     0.212 A 
ATOM     16  N4  <0> d           0.027  -2.075  -0.748  0.00  0.00    -0.218 NA
ATOM     17  C5  <0> d           0.034  -2.201   0.562  0.00  0.00     0.230 A 
BRANCH  17  18
ATOM     18  N6  <0> d           0.055  -3.467   1.334  0.00  0.00    -0.093 N 
ATOM     19  O7  <0> d           0.068  -4.624   0.704  0.00  0.00    -0.530 OA
ATOM     20  O8  <0> d           0.060  -3.436   2.651  0.00  0.00    -0.530 OA
ENDBRANCH  17  18
ENDBRANCH  11  12
ENDBRANCH   1  11
TORSDOF 3
