REMARK  2 active torsions:
REMARK  status: ('A' for Active; 'I' for Inactive)
REMARK    1  A    between atoms: C2_2  and  C4_3 
REMARK    2  A    between atoms: C2_2  and  N13_12 
REMARK       I    between atoms: N13_12  and  C15_14 
REMARK       I    between atoms: C15_14  and  N16_15 
ROOT
ATOM      1  C4  <0> d           0.375  -0.435   1.399  0.00  0.00     0.009 A 
ATOM      2  C5  <0> d          -0.506  -0.586   2.369  0.00  0.00     0.029 A 
ATOM      3  C6  <0> d           0.054  -0.996   3.646  0.00  0.00    -0.018 A 
ATOM      4  C7  <0> d          -0.600  -1.243   4.872  0.00  0.00     0.013 A 
ATOM      5  C8  <0> d           0.110  -1.623   5.969  0.00  0.00     0.001 A 
ATOM      6  C9  <0> d           1.488  -1.774   5.901  0.00  0.00     0.001 A 
ATOM      7  C10 <0> d           2.152  -1.540   4.719  0.00  0.00     0.019 A 
ATOM      8  C11 <0> d           1.442  -1.149   3.580  0.00  0.00     0.015 A 
ATOM      9  S12 <0> d           2.000  -0.791   1.951  0.00  0.00    -0.092 SA
ENDROOT
BRANCH   1  10
ATOM     10  C2  <0> d           0.027  -0.018  -0.006  0.00  0.00     0.158 C 
ATOM     11  C1  <0> d           0.466   1.431  -0.231  0.00  0.00     0.041 C 
BRANCH  10  12
ATOM     12  N13 <0> d           0.717  -0.890  -0.960  0.00  0.00    -0.165 N 
ATOM     13  O14 <0> d           2.131  -0.873  -1.040  0.00  0.00    -0.081 OA
ATOM     14  C15 <0> d           0.006  -1.709  -1.760  0.00  0.00     0.343 C 
ATOM     15  N16 <0> d           0.642  -2.590  -2.558  0.00  0.00    -0.350 N 
ATOM     16  O17 <0> d          -1.208  -1.654  -1.762  0.00  0.00    -0.245 OA
ATOM     17  H26 <0> d           1.611  -2.634  -2.557  0.00  0.00     0.160 HD
ATOM     18  H27 <0> d           0.131  -3.179  -3.134  0.00  0.00     0.160 HD
ENDBRANCH  10  12
ENDBRANCH   1  10
TORSDOF 2
