REMARK  7 active torsions:
REMARK  status: ('A' for Active; 'I' for Inactive)
REMARK    1  A    between atoms: C2_2  and  N4_4 
REMARK    2  A    between atoms: N4_4  and  C7_7 
REMARK    3  A    between atoms: C7_7  and  C8_8 
REMARK    4  A    between atoms: C8_8  and  O10_9 
REMARK    5  A    between atoms: C8_8  and  C11_10 
REMARK    6  A    between atoms: C13_12  and  O14_13 
REMARK    7  A    between atoms: C16_15  and  O17_16 
ROOT
ATOM      1  C11 <0> d          -2.777  -4.006  -0.237  0.00  0.00    -0.023 A 
ATOM      2  C12 <0> d          -2.623  -4.796   0.886  0.00  0.00     0.046 A 
ATOM      3  C13 <0> d          -2.607  -6.178   0.767  0.00  0.00     0.069 A 
ATOM      4  C15 <0> d          -2.745  -6.767  -0.480  0.00  0.00     0.073 A 
ATOM      5  C16 <0> d          -2.899  -5.973  -1.606  0.00  0.00     0.069 A 
ATOM      6  C18 <0> d          -2.921  -4.591  -1.481  0.00  0.00     0.046 A 
ENDROOT
BRANCH   1   7
ATOM      7  C8  <0> d          -2.795  -2.505  -0.105  0.00  0.00     0.177 C 
BRANCH   7   8
ATOM      8  C7  <0> d          -1.359  -1.976  -0.116  0.00  0.00     0.269 C 
BRANCH   8   9
ATOM      9  N4  <0> d          -1.376  -0.512   0.012  0.00  0.00    -0.069 N 
ATOM     10  H5  <0> d          -1.823  -0.256   0.880  0.00  0.00     0.277 HD
ATOM     11  H6  <0> d          -1.888  -0.113  -0.760  0.00  0.00     0.277 HD
BRANCH   9  12
ATOM     12  C2  <0> d           0.002  -0.004   0.002  0.00  0.00     0.178 C 
ATOM     13  C1  <0> d          -0.019   1.526   0.010  0.00  0.00     0.039 C 
ATOM     14  C3  <0> d           0.742  -0.511   1.242  0.00  0.00     0.039 C 
ENDBRANCH   9  12
ENDBRANCH   8   9
ENDBRANCH   7   8
BRANCH   7  15
ATOM     15  O10 <0> d          -3.427  -2.143   1.124  0.00  0.00    -0.389 OA
ATOM     16  H28 <0> d          -2.987  -2.493   1.911  0.00  0.00     0.210 HD
ENDBRANCH   7  15
ENDBRANCH   1   7
BRANCH   5  17
ATOM     17  O17 <0> d          -3.036  -6.547  -2.830  0.00  0.00    -0.361 OA
ATOM     18  H32 <0> d          -3.952  -6.733  -3.078  0.00  0.00     0.217 HD
ENDBRANCH   5  17
BRANCH   3  19
ATOM     19  O14 <0> d          -2.456  -6.955   1.872  0.00  0.00    -0.361 OA
ATOM     20  H30 <0> d          -3.289  -7.199   2.298  0.00  0.00     0.217 HD
ENDBRANCH   3  19
TORSDOF 7
