REMARK  6 active torsions:
REMARK  status: ('A' for Active; 'I' for Inactive)
REMARK    1  A    between atoms: C5_5  and  C6_6 
REMARK       I    between atoms: C6_6  and  N8_8 
REMARK    2  A    between atoms: N8_8  and  C9_9 
REMARK    3  A    between atoms: C9_9  and  C12_12 
REMARK    4  A    between atoms: C14_14  and  C15_15 
REMARK    5  A    between atoms: N17_17  and  C18_18 
REMARK    6  A    between atoms: C18_18  and  C19_19 
ROOT
ATOM      1  C12 ZIN AC000       0.264  -7.017   0.666  0.00  0.00     0.137 A 
ATOM      2  N13 ZIN AC000      -0.687  -7.903   0.756  0.00  0.00    -0.225 NA
ATOM      3  C14 ZIN AC000      -0.894  -8.814  -0.213  0.00  0.00     0.156 A 
ATOM      4  C26 ZIN AC000      -0.082  -8.814  -1.335  0.00  0.00     0.208 A 
ATOM      5  O27 ZIN AC000      -0.268  -9.720  -2.329  0.00  0.00    -0.183 OA
ATOM      6  C28 ZIN AC000       0.950  -7.843  -1.419  0.00  0.00     0.287 A 
ATOM      7  O29 ZIN AC000       1.690  -7.803  -2.387  0.00  0.00    -0.265 OA
ATOM      8  N30 ZIN AC000       1.089  -6.960  -0.407  0.00  0.00    -0.302 N 
ATOM      9  C31 ZIN AC000       2.144  -5.945  -0.464  0.00  0.00     0.161 C 
ENDROOT
BRANCH   1  10
ATOM     10  C9  ZIN AC000       0.446  -6.024   1.784  0.00  0.00     0.086 C 
ATOM     11  C10 ZIN AC000      -0.490  -6.379   2.941  0.00  0.00     0.046 C 
ATOM     12  C11 ZIN AC000       0.119  -4.618   1.276  0.00  0.00     0.046 C 
BRANCH  10  13
ATOM     13  N8  ZIN AC000       1.835  -6.063   2.250  0.00  0.00    -0.338 N 
ATOM     14  C6  ZIN AC000       2.256  -5.191   3.187  0.00  0.00     0.297 C 
ATOM     15  O7  ZIN AC000       1.484  -4.371   3.646  0.00  0.00    -0.264 OA
ATOM     16  H36 ZIN AC000       2.451  -6.717   1.884  0.00  0.00     0.164 HD
BRANCH  14  17
ATOM     17  C5  ZIN AC000       3.653  -5.231   3.656  0.00  0.00     0.261 A 
ATOM     18  N4  ZIN AC000       4.588  -6.058   3.250  0.00  0.00    -0.116 NA
ATOM     19  N3  ZIN AC000       5.682  -5.801   3.876  0.00  0.00    -0.127 NA
ATOM     20  C2  ZIN AC000       5.487  -4.805   4.702  0.00  0.00     0.166 A 
ATOM     21  C1  ZIN AC000       6.516  -4.197   5.621  0.00  0.00     0.102 C 
ATOM     22  O32 ZIN AC000       4.208  -4.426   4.587  0.00  0.00    -0.270 OA
ENDBRANCH  14  17
ENDBRANCH  10  13
ENDBRANCH   1  10
BRANCH   3  23
ATOM     23  C15 ZIN AC000      -1.984  -9.807  -0.081  0.00  0.00     0.228 C 
ATOM     24  O16 ZIN AC000      -2.775  -9.802   1.016  0.00  0.00    -0.168 OA
ATOM     25  N17 ZIN AC000      -2.180 -10.684  -1.020  0.00  0.00    -0.258 NA
BRANCH  25  26
ATOM     26  C18 ZIN AC000      -3.258 -11.668  -0.889  0.00  0.00     0.190 C 
BRANCH  26  27
ATOM     27  C19 ZIN AC000      -4.288 -11.430  -1.964  0.00  0.00    -0.038 A 
ATOM     28  C25 ZIN AC000      -4.170 -12.065  -3.186  0.00  0.00     0.012 A 
ATOM     29  C24 ZIN AC000      -5.116 -11.851  -4.171  0.00  0.00     0.043 A 
ATOM     30  C22 ZIN AC000      -6.177 -10.993  -3.936  0.00  0.00     0.116 A 
ATOM     31  C21 ZIN AC000      -6.291 -10.354  -2.713  0.00  0.00     0.043 A 
ATOM     32  F23 ZIN AC000      -7.100 -10.780  -4.899  0.00  0.00    -0.206 F 
ATOM     33  C20 ZIN AC000      -5.346 -10.573  -1.728  0.00  0.00     0.012 A 
ENDBRANCH  26  27
ENDBRANCH  25  26
ENDBRANCH   3  23
TORSDOF 6
