REMARK  3 active torsions:
REMARK  status: ('A' for Active; 'I' for Inactive)
REMARK    1  A    between atoms: C2_2  and  C4_4 
REMARK    2  A    between atoms: C6_6  and  C7_7 
REMARK    3  A    between atoms: C17_17  and  O18_18 
ROOT
ATOM      1  C4  ZIN AC000      -1.299   1.938   0.019  0.00  0.00     0.074 A 
ATOM      2  C5  ZIN AC000      -2.501   1.226   0.026  0.00  0.00     0.033 A 
ATOM      3  C6  ZIN AC000      -3.708   1.912   0.036  0.00  0.00    -0.022 A 
ATOM      4  C15 ZIN AC000      -3.720   3.309   0.039  0.00  0.00     0.015 A 
ATOM      5  C16 ZIN AC000      -2.535   4.014   0.031  0.00  0.00     0.038 A 
ATOM      6  C17 ZIN AC000      -1.322   3.341   0.026  0.00  0.00     0.082 A 
ENDROOT
BRANCH   3   7
ATOM      7  C7  ZIN AC000      -4.988   1.161   0.045  0.00  0.00     0.013 A 
ATOM      8  C13 ZIN AC000      -5.978   1.474   0.978  0.00  0.00     0.130 A 
ATOM      9  C12 ZIN AC000      -7.169   0.775   0.977  0.00  0.00     0.085 A 
ATOM     10  F14 ZIN AC000      -5.775   2.466   1.872  0.00  0.00    -0.205 F 
ATOM     11  C10 ZIN AC000      -7.377  -0.243   0.060  0.00  0.00     0.119 A 
ATOM     12  C9  ZIN AC000      -6.394  -0.560  -0.863  0.00  0.00     0.043 A 
ATOM     13  F11 ZIN AC000      -8.541  -0.928   0.067  0.00  0.00    -0.206 F 
ATOM     14  C8  ZIN AC000      -5.202   0.136  -0.874  0.00  0.00     0.018 A 
ENDBRANCH   3   7
BRANCH   1  15
ATOM     15  C2  ZIN AC000      -0.015   1.219   0.009  0.00  0.00     0.212 C 
ATOM     16  O1  ZIN AC000       0.002  -0.004   0.002  0.00  0.00    -0.644 OA
ATOM     17  O3  ZIN AC000       1.036   1.845   0.002  0.00  0.00    -0.644 OA
ENDBRANCH   1  15
BRANCH   6  18
ATOM     18  O18 ZIN AC000      -0.159   4.039   0.019  0.00  0.00    -0.360 OA
ATOM     19  H25 ZIN AC000       0.182   4.243   0.901  0.00  0.00     0.217 HD
ENDBRANCH   6  18
TORSDOF 3
