REMARK  7 active torsions:
REMARK  status: ('A' for Active; 'I' for Inactive)
REMARK    1  A    between atoms: C8_8  and  O9_9 
REMARK    2  A    between atoms: O9_9  and  C10_10 
REMARK    3  A    between atoms: C10_10  and  C11_11 
REMARK    4  A    between atoms: C11_11  and  C12_12 
REMARK    5  A    between atoms: C12_12  and  C13_13 
REMARK    6  A    between atoms: C13_13  and  N14_14 
REMARK    7  A    between atoms: N17_17  and  C18_18 
ROOT
ATOM      1  C12 ZIN AC000       4.552   9.619  -1.075  0.00  0.00     0.032 C 
ENDROOT
BRANCH   1   2
ATOM      2  C11 ZIN AC000       4.633   8.093  -1.135  0.00  0.00     0.028 C 
BRANCH   2   3
ATOM      3  C10 ZIN AC000       3.304   7.494  -0.669  0.00  0.00     0.175 C 
BRANCH   3   4
ATOM      4  O9  ZIN AC000       3.379   6.068  -0.725  0.00  0.00    -0.351 OA
BRANCH   4   5
ATOM      5  C8  ZIN AC000       2.274   5.376  -0.342  0.00  0.00     0.070 A 
ATOM      6  C7  ZIN AC000       1.140   6.057   0.079  0.00  0.00     0.037 A 
ATOM      7  C6  ZIN AC000       0.015   5.356   0.470  0.00  0.00     0.012 A 
ATOM      8  C5  ZIN AC000       0.016   3.975   0.442  0.00  0.00    -0.031 A 
ATOM      9  C4  ZIN AC000      -1.211   3.209   0.867  0.00  0.00     0.050 C 
ATOM     10  C29 ZIN AC000       1.148   3.288   0.022  0.00  0.00     0.043 A 
ATOM     11  C3  ZIN AC000      -1.333   1.935   0.031  0.00  0.00     0.108 C 
ATOM     12  C2  ZIN AC000      -0.014   1.209   0.009  0.00  0.00     0.222 C 
ATOM     13  O1  ZIN AC000       0.002  -0.004   0.002  0.00  0.00    -0.273 OA
ATOM     14  N30 ZIN AC000       1.146   1.890   0.001  0.00  0.00    -0.327 N 
ATOM     15  H57 ZIN AC000       1.987   1.407  -0.022  0.00  0.00     0.169 HD
ATOM     16  C28 ZIN AC000       2.278   3.990  -0.371  0.00  0.00     0.066 A 
ENDBRANCH   4   5
ENDBRANCH   3   4
ENDBRANCH   2   3
ENDBRANCH   1   2
BRANCH   1  17
ATOM     17  C13 ZIN AC000       5.881  10.219  -1.541  0.00  0.00     0.272 C 
BRANCH  17  18
ATOM     18  N14 ZIN AC000       5.804  11.684  -1.484  0.00  0.00     0.090 N 
ATOM     19  C27 ZIN AC000       6.965  12.299  -2.142  0.00  0.00     0.287 C 
ATOM     20  C26 ZIN AC000       6.888  13.820  -1.991  0.00  0.00     0.126 C 
ATOM     21  N17 ZIN AC000       5.633  14.305  -2.583  0.00  0.00    -0.279 NA
ATOM     22  C16 ZIN AC000       4.472  13.690  -1.925  0.00  0.00     0.126 C 
ATOM     23  C15 ZIN AC000       4.549  12.169  -2.075  0.00  0.00     0.287 C 
BRANCH  21  24
ATOM     24  C18 ZIN AC000       5.560  15.700  -2.529  0.00  0.00     0.034 A 
ATOM     25  C24 ZIN AC000       5.527  16.442  -3.703  0.00  0.00     0.077 A 
ATOM     26  C22 ZIN AC000       5.449  17.821  -3.645  0.00  0.00     0.057 A 
ATOM     27 Cl25 ZIN AC000       5.572  15.637  -5.241  0.00  0.00    -0.081 Cl
ATOM     28  C21 ZIN AC000       5.414  18.462  -2.419  0.00  0.00     0.026 A 
ATOM     29 Cl23 ZIN AC000       5.400  18.750  -5.111  0.00  0.00    -0.082 Cl
ATOM     30  C20 ZIN AC000       5.452  17.726  -1.249  0.00  0.00     0.004 A 
ATOM     31  C19 ZIN AC000       5.525  16.347  -1.301  0.00  0.00     0.025 A 
ENDBRANCH  21  24
ENDBRANCH  17  18
ENDBRANCH   1  17
TORSDOF 7
