REMARK  4 active torsions:
REMARK  status: ('A' for Active; 'I' for Inactive)
REMARK    1  A    between atoms: P2_2  and  O4_4 
REMARK    2  A    between atoms: P2_2  and  C5_5 
REMARK    3  A    between atoms: C5_5  and  P6_6 
REMARK    4  A    between atoms: P6_6  and  O9_9 
ROOT
ATOM      1  C5  ZIN AC000      -0.872   2.129   1.510  0.00  0.00     0.270 C 
ENDROOT
BRANCH   1   2
ATOM      2  P2  ZIN AC000      -0.019   1.541   0.011  0.00  0.00     0.259 P 
ATOM      3  O1  ZIN AC000       0.002  -0.004   0.002  0.00  0.00    -0.646 OA
ATOM      4  O3  ZIN AC000       1.431   2.075  -0.001  0.00  0.00    -0.646 OA
BRANCH   2   5
ATOM      5  O4  ZIN AC000      -0.798   2.074  -1.294  0.00  0.00    -0.322 OA
ATOM      6  H10 ZIN AC000      -0.398   1.799  -2.130  0.00  0.00     0.221 HD
ENDBRANCH   2   5
ENDBRANCH   1   2
BRANCH   1   7
ATOM      7  P6  ZIN AC000       0.009   1.525   2.987  0.00  0.00     0.259 P 
ATOM      8  O7  ZIN AC000       0.030  -0.020   2.979  0.00  0.00    -0.646 OA
ATOM      9  O8  ZIN AC000       1.459   2.060   2.976  0.00  0.00    -0.646 OA
BRANCH   7  10
ATOM     10  O9  ZIN AC000      -0.744   2.044   4.312  0.00  0.00    -0.322 OA
ATOM     11  H13 ZIN AC000      -0.329   1.760   5.138  0.00  0.00     0.221 HD
ENDBRANCH   7  10
ENDBRANCH   1   7
TORSDOF 4
