REMARK  2 active torsions:
REMARK  status: ('A' for Active; 'I' for Inactive)
REMARK    1  A    between atoms: C2_2  and  N4_3 
REMARK    2  A    between atoms: C2_2  and  C8_7 
ROOT
ATOM      1  C8  ZIN AC000      -1.433  -0.534   0.013  0.00  0.00    -0.012 C 
ATOM      2  C9  ZIN AC000      -2.173  -0.027  -1.227  0.00  0.00     0.016 C 
ATOM      3  C10 ZIN AC000      -3.609  -0.556  -1.216  0.00  0.00    -0.013 C 
ATOM      4  C11 ZIN AC000      -4.325  -0.063   0.043  0.00  0.00     0.009 C 
ATOM      5  C12 ZIN AC000      -3.585  -0.570   1.282  0.00  0.00    -0.013 C 
ATOM      6  C13 ZIN AC000      -3.564  -2.100   1.274  0.00  0.00     0.009 C 
ATOM      7  C14 ZIN AC000      -2.848  -2.593   0.015  0.00  0.00    -0.013 C 
ATOM      8  C15 ZIN AC000      -3.588  -2.086  -1.224  0.00  0.00     0.009 C 
ATOM      9  C16 ZIN AC000      -1.413  -2.063   0.004  0.00  0.00     0.016 C 
ATOM     10  C17 ZIN AC000      -2.149  -0.040   1.272  0.00  0.00     0.016 C 
ENDROOT
BRANCH   1  11
ATOM     11  C2  ZIN AC000       0.002  -0.004   0.002  0.00  0.00     0.188 C 
ATOM     12  C1  ZIN AC000      -0.019   1.526   0.010  0.00  0.00     0.040 C 
BRANCH  11  13
ATOM     13  N4  ZIN AC000       0.690  -0.478  -1.207  0.00  0.00    -0.075 N 
ATOM     14  H5  ZIN AC000       1.636  -0.129  -1.214  0.00  0.00     0.274 HD
ATOM     15  H6  ZIN AC000       0.703  -1.487  -1.212  0.00  0.00     0.274 HD
ATOM     16  H7  ZIN AC000       0.202  -0.144  -2.024  0.00  0.00     0.274 HD
ENDBRANCH  11  13
ENDBRANCH   1  11
TORSDOF 2
