REMARK  4 active torsions:
REMARK  status: ('A' for Active; 'I' for Inactive)
REMARK    1  A    between atoms: C3_3  and  C4_4 
REMARK       I    between atoms: C4_4  and  N6_6 
REMARK    2  A    between atoms: N6_6  and  C7_7 
REMARK    3  A    between atoms: C18_16  and  C20_17 
REMARK    4  A    between atoms: C23_20  and  C24_21 
ROOT
ATOM      1  C4  RES d   1      -2.529  -0.708   0.407  0.00  0.00     0.257 C 
ATOM      2  O5  RES d   1      -3.259  -0.455  -0.532  0.00  0.00    -0.267 OA
ATOM      3  N6  RES d   1      -3.035  -0.776   1.655  0.00  0.00    -0.342 N 
ATOM      4  H37 RES d   1      -2.452  -0.977   2.404  0.00  0.00     0.163 HD
ENDROOT
BRANCH   1   5
ATOM      5  C3  RES d   1      -1.093  -0.940   0.181  0.00  0.00     0.095 A 
ATOM      6  C2  RES d   1      -0.083  -0.016   0.072  0.00  0.00     0.093 A 
ATOM      7  C1  RES d   1      -0.220   1.482   0.160  0.00  0.00     0.080 C 
ATOM      8  O33 RES d   1       1.042  -0.705  -0.134  0.00  0.00    -0.217 OA
ATOM      9  N32 RES d   1       0.875  -1.899  -0.158  0.00  0.00    -0.127 NA
ATOM     10  C23 RES d   1      -0.381  -2.225   0.016  0.00  0.00     0.116 A 
BRANCH  10  11
ATOM     11  C24 RES d   1      -0.965  -3.588   0.040  0.00  0.00     0.039 A 
ATOM     12  C30 RES d   1      -0.509  -4.527   0.965  0.00  0.00     0.048 A 
ATOM     13  C29 RES d   1      -1.061  -5.794   0.987  0.00  0.00     0.025 A 
ATOM     14 Cl31 RES d   1       0.738  -4.102   2.095  0.00  0.00    -0.083 Cl
ATOM     15  C28 RES d   1      -2.054  -6.134   0.087  0.00  0.00     0.003 A 
ATOM     16  C27 RES d   1      -2.506  -5.209  -0.837  0.00  0.00     0.025 A 
ATOM     17  C25 RES d   1      -1.966  -3.937  -0.865  0.00  0.00     0.048 A 
ATOM     18 Cl26 RES d   1      -2.534  -2.777  -2.025  0.00  0.00    -0.083 Cl
ENDBRANCH  10  11
ENDBRANCH   1   5
BRANCH   3  19
ATOM     19  C7  RES d   1      -4.464  -0.545   1.879  0.00  0.00     0.199 C 
ATOM     20  C12 RES d   1      -4.995  -1.177   3.169  0.00  0.00     0.160 C 
ATOM     21  N11 RES d   1      -5.097   0.199   3.708  0.00  0.00    -0.219 NA
ATOM     22  S14 RES d   1      -3.727  -2.000   4.203  0.00  0.00    -0.135 SA
ATOM     23  C9  RES d   1      -4.772   0.793   2.520  0.00  0.00     0.227 C 
ATOM     24  C18 RES d   1      -4.213   0.482   4.843  0.00  0.00     0.186 C 
ATOM     25  O10 RES d   1      -4.742   1.941   2.131  0.00  0.00    -0.277 OA
ATOM     26  C15 RES d   1      -3.907  -0.837   5.620  0.00  0.00     0.029 C 
ATOM     27  C16 RES d   1      -5.070  -1.243   6.528  0.00  0.00     0.029 C 
ATOM     28  C17 RES d   1      -2.604  -0.718   6.412  0.00  0.00     0.029 C 
BRANCH  24  29
ATOM     29  C20 RES d   1      -4.901   1.455   5.765  0.00  0.00     0.193 C 
ATOM     30  O21 RES d   1      -4.241   2.237   6.428  0.00  0.00    -0.647 OA
ATOM     31  O22 RES d   1      -6.117   1.461   5.848  0.00  0.00    -0.647 OA
ENDBRANCH  24  29
ENDBRANCH   3  19
TORSDOF 4
