REMARK  6 active torsions:
REMARK  status: ('A' for Active; 'I' for Inactive)
REMARK    1  A    between atoms: C5_5  and  O7_6 
REMARK    2  A    between atoms: C10_9  and  C11_10 
REMARK    3  A    between atoms: C22_20  and  C24_21 
REMARK    4  A    between atoms: C24_21  and  C27_23 
REMARK    5  A    between atoms: C28_24  and  C29_25 
REMARK    6  A    between atoms: C29_25  and  C32_27 
ROOT
ATOM      1  C11 <0> d           2.185   0.767  -1.678  0.00  0.00     0.004 C 
ATOM      2  C12 <0> d           3.207   1.123  -2.457  0.00  0.00    -0.075 C 
ATOM      3  C13 <0> d           4.519   0.353  -2.483  0.00  0.00     0.034 C 
ATOM      4  C14 <0> d           4.924   0.024  -3.919  0.00  0.00     0.005 C 
ATOM      5  C15 <0> d           4.840   1.259  -4.832  0.00  0.00     0.010 C 
ATOM      6  C16 <0> d           3.413   1.756  -4.797  0.00  0.00    -0.032 C 
ATOM      7  C17 <0> d           2.463   0.584  -5.051  0.00  0.00     0.016 C 
ATOM      8  C18 <0> d           3.143   2.308  -3.374  0.00  0.00     0.023 C 
ATOM      9  C20 <0> d           1.772   2.961  -3.563  0.00  0.00     0.010 C 
ATOM     10  C21 <0> d           1.916   3.672  -4.938  0.00  0.00     0.007 C 
ATOM     11  C22 <0> d           3.031   2.918  -5.700  0.00  0.00     0.002 C 
ENDROOT
BRANCH   1  12
ATOM     12  C10 <0> d           2.305  -0.401  -0.802  0.00  0.00     0.008 C 
ATOM     13  C9  <0> d           1.271  -0.761  -0.014  0.00  0.00    -0.050 C 
ATOM     14  C2  <0> d           0.002  -0.004   0.002  0.00  0.00    -0.061 C 
ATOM     15  C8  <0> d           1.355  -1.966   0.908  0.00  0.00     0.070 C 
ATOM     16  C1  <0> d          -0.016   1.329   0.009  0.00  0.00     0.019 C 
ATOM     17  C3  <0> d          -1.278  -0.816   0.003  0.00  0.00     0.041 C 
ATOM     18  C4  <0> d          -1.145  -1.924   1.053  0.00  0.00     0.036 C 
ATOM     19  C5  <0> d           0.075  -2.791   0.740  0.00  0.00     0.122 C 
BRANCH  19  20
ATOM     20  O7  <0> d           0.109  -3.905   1.634  0.00  0.00    -0.395 OA
ATOM     21  H41 <0> d           0.858  -4.500   1.494  0.00  0.00     0.210 HD
ENDBRANCH  19  20
ENDBRANCH   1  12
BRANCH  11  22
ATOM     22  C24 <0> d           2.502   2.400  -7.039  0.00  0.00     0.008 C 
ATOM     23  C26 <0> d           3.608   1.627  -7.760  0.00  0.00     0.014 C 
BRANCH  22  24
ATOM     24  C27 <0> d           2.067   3.565  -7.891  0.00  0.00    -0.026 C 
ATOM     25  C28 <0> d           0.824   3.653  -8.294  0.00  0.00    -0.026 C 
BRANCH  25  26
ATOM     26  C29 <0> d           0.388   4.817  -9.146  0.00  0.00     0.007 C 
ATOM     27  C31 <0> d          -0.718   5.591  -8.425  0.00  0.00     0.014 C 
BRANCH  26  28
ATOM     28  C32 <0> d          -0.141   4.300 -10.486  0.00  0.00    -0.015 C 
ATOM     29  C33 <0> d          -0.583   5.483 -11.350  0.00  0.00     0.010 C 
ATOM     30  C34 <0> d           0.966   3.527 -11.206  0.00  0.00     0.010 C 
ENDBRANCH  26  28
ENDBRANCH  25  26
ENDBRANCH  22  24
ENDBRANCH  11  22
TORSDOF 6
