REMARK  8 active torsions:
REMARK  status: ('A' for Active; 'I' for Inactive)
REMARK    1  A    between atoms: C2_2  and  C3_3 
REMARK    2  A    between atoms: C3_3  and  C23_23 
REMARK    3  A    between atoms: C4_4  and  C5_5 
REMARK    4  A    between atoms: C4_4  and  C11_11 
REMARK    5  A    between atoms: C14_14  and  O15_15 
REMARK    6  A    between atoms: O15_15  and  C16_16 
REMARK    7  A    between atoms: C16_16  and  C17_17 
REMARK    8  A    between atoms: C17_17  and  N18_18 
ROOT
ATOM      1  C3  <0> d           0.966  -0.486  -1.500  0.00  0.00    -0.036 C 
ATOM      2  C4  <0> d           2.190  -1.005  -1.238  0.00  0.00    -0.009 C 
ENDROOT
BRANCH   2   3
ATOM      3  C5  <0> d           2.673  -1.092   0.158  0.00  0.00    -0.025 A 
ATOM      4  C10 <0> d           2.887  -2.337   0.749  0.00  0.00     0.012 A 
ATOM      5  C9  <0> d           3.343  -2.412   2.049  0.00  0.00     0.001 A 
ATOM      6  C8  <0> d           3.576  -1.254   2.771  0.00  0.00     0.000 A 
ATOM      7  C7  <0> d           3.361  -0.016   2.192  0.00  0.00     0.001 A 
ATOM      8  C6  <0> d           2.911   0.072   0.891  0.00  0.00     0.012 A 
ENDBRANCH   2   3
BRANCH   2   9
ATOM      9  C11 <0> d           3.043  -1.484  -2.347  0.00  0.00    -0.024 A 
ATOM     10  C22 <0> d           4.252  -0.844  -2.628  0.00  0.00     0.015 A 
ATOM     11  C21 <0> d           5.046  -1.297  -3.659  0.00  0.00     0.037 A 
ATOM     12  C14 <0> d           4.641  -2.382  -4.425  0.00  0.00     0.068 A 
ATOM     13  C13 <0> d           3.437  -3.018  -4.153  0.00  0.00     0.037 A 
ATOM     14  C12 <0> d           2.639  -2.575  -3.120  0.00  0.00     0.015 A 
BRANCH  12  15
ATOM     15  O15 <0> d           5.424  -2.822  -5.445  0.00  0.00    -0.349 OA
BRANCH  15  16
ATOM     16  C16 <0> d           6.649  -2.122  -5.670  0.00  0.00     0.206 C 
BRANCH  16  17
ATOM     17  C17 <0> d           7.390  -2.756  -6.849  0.00  0.00     0.297 C 
BRANCH  17  18
ATOM     18  N18 <0> d           6.592  -2.595  -8.072  0.00  0.00     0.082 N 
ATOM     19  C19 <0> d           6.694  -1.224  -8.590  0.00  0.00     0.309 C 
ATOM     20  C20 <0> d           6.990  -3.574  -9.093  0.00  0.00     0.309 C 
ENDBRANCH  17  18
ENDBRANCH  16  17
ENDBRANCH  15  16
ENDBRANCH  12  15
ENDBRANCH   2   9
BRANCH   1  21
ATOM     21  C2  <0> d           0.040  -0.129  -0.366  0.00  0.00     0.036 C 
ATOM     22  C1  <0> d          -0.887  -1.311  -0.073  0.00  0.00     0.010 C 
ENDBRANCH   1  21
BRANCH   1  23
ATOM     23  C23 <0> d           0.541  -0.271  -2.892  0.00  0.00    -0.029 A 
ATOM     24  C28 <0> d          -0.533  -0.996  -3.419  0.00  0.00     0.012 A 
ATOM     25  C27 <0> d          -0.929  -0.785  -4.723  0.00  0.00     0.001 A 
ATOM     26  C26 <0> d          -0.259   0.133  -5.513  0.00  0.00     0.000 A 
ATOM     27  C25 <0> d           0.808   0.851  -5.001  0.00  0.00     0.001 A 
ATOM     28  C24 <0> d           1.212   0.655  -3.697  0.00  0.00     0.012 A 
ENDBRANCH   1  23
TORSDOF 8
