REMARK  3 active torsions:
REMARK  status: ('A' for Active; 'I' for Inactive)
REMARK    1  A    between atoms: N2_2  and  C4_4 
REMARK    2  A    between atoms: C6_6  and  N7_7 
REMARK    3  A    between atoms: C12_12  and  N13_13 
ROOT
ATOM      1  C4  ZIN AC000       0.000  -0.688  -1.197  0.00  0.00     0.755 A 
ATOM      2  N5  ZIN AC000       0.013  -2.017  -1.204  0.00  0.00     0.129 NA
ATOM      3  C6  ZIN AC000       0.010  -2.675  -2.359  0.00  0.00     0.732 A 
ATOM      4  N10 ZIN AC000      -0.005  -2.005  -3.507  0.00  0.00    -0.018 N 
ATOM      5  H11 ZIN AC000      -0.007  -2.485  -4.349  0.00  0.00     0.203 HD
ATOM      6  C12 ZIN AC000      -0.017  -0.675  -3.499  0.00  0.00     0.732 A 
ATOM      7  N16 ZIN AC000      -0.020  -0.017  -2.345  0.00  0.00     0.129 NA
ENDROOT
BRANCH   1   8
ATOM      8  N2  ZIN AC000       0.002  -0.004   0.002  0.00  0.00    -0.222 N 
ATOM      9  C1  ZIN AC000      -0.018   1.461   0.010  0.00  0.00     0.168 C 
ATOM     10  C3  ZIN AC000       0.024  -0.743   1.267  0.00  0.00     0.168 C 
ENDBRANCH   1   8
BRANCH   6  11
ATOM     11  N13 ZIN AC000      -0.033   0.021  -4.691  0.00  0.00    -0.224 N 
ATOM     12  C14 ZIN AC000      -0.036  -0.704  -5.963  0.00  0.00     0.168 C 
ATOM     13  C15 ZIN AC000      -0.047   1.486  -4.683  0.00  0.00     0.168 C 
ENDBRANCH   6  11
BRANCH   3  14
ATOM     14  N7  ZIN AC000       0.023  -4.055  -2.366  0.00  0.00    -0.224 N 
ATOM     15  C8  ZIN AC000       0.038  -4.795  -1.102  0.00  0.00     0.168 C 
ATOM     16  C9  ZIN AC000       0.020  -4.781  -3.639  0.00  0.00     0.168 C 
ENDBRANCH   3  14
TORSDOF 3
