REMARK  6 active torsions:
REMARK  status: ('A' for Active; 'I' for Inactive)
REMARK    1  A    between atoms: O2_2  and  C3_3 
REMARK    2  A    between atoms: C4_4  and  C5_5 
REMARK    3  A    between atoms: C10_10  and  N11_11 
REMARK    4  A    between atoms: N11_11  and  S12_12 
REMARK    5  A    between atoms: C21_21  and  N22_22 
REMARK    6  A    between atoms: C31_31  and  C32_32 
ROOT
ATOM      1  C3  <0> d           0.665  -0.064  -1.107  0.00  0.00     0.086 A 
ATOM      2  C4  <0> d          -0.265  -0.768  -1.877  0.00  0.00     0.010 A 
ATOM      3  C20 <0> d           0.168  -1.781  -2.729  0.00  0.00     0.045 A 
ATOM      4  C21 <0> d           1.518  -2.086  -2.808  0.00  0.00     0.045 A 
ATOM      5  C30 <0> d           2.437  -1.383  -2.039  0.00  0.00     0.041 A 
ATOM      6  C31 <0> d           2.013  -0.373  -1.198  0.00  0.00    -0.014 A 
ENDROOT
BRANCH   2   7
ATOM      7  C5  <0> d          -1.708  -0.436  -1.789  0.00  0.00    -0.022 A 
ATOM      8  C19 <0> d          -2.433  -0.219  -2.945  0.00  0.00     0.024 A 
ATOM      9  C18 <0> d          -3.799   0.089  -2.856  0.00  0.00    -0.025 A 
ATOM     10  C8  <0> d          -4.411   0.184  -1.580  0.00  0.00    -0.024 A 
ATOM     11  C17 <0> d          -4.569   0.311  -4.013  0.00  0.00     0.014 A 
ATOM     12  C7  <0> d          -3.643  -0.037  -0.422  0.00  0.00     0.013 A 
ATOM     13  C9  <0> d          -5.777   0.498  -1.493  0.00  0.00     0.042 A 
ATOM     14  C6  <0> d          -2.323  -0.339  -0.530  0.00  0.00     0.013 A 
ATOM     15  C10 <0> d          -6.501   0.710  -2.646  0.00  0.00     0.043 A 
ATOM     16  C16 <0> d          -5.889   0.614  -3.901  0.00  0.00     0.031 A 
BRANCH  15  17
ATOM     17  N11 <0> d          -7.859   1.022  -2.561  0.00  0.00    -0.285 N 
ATOM     18  H42 <0> d          -8.498   0.340  -2.304  0.00  0.00     0.178 HD
BRANCH  17  19
ATOM     19  S12 <0> d          -8.377   2.558  -2.899  0.00  0.00     0.227 S 
ATOM     20  C13 <0> d          -7.676   3.588  -1.581  0.00  0.00     0.186 C 
ATOM     21  O14 <0> d          -7.773   2.879  -4.145  0.00  0.00    -0.206 OA
ATOM     22  O15 <0> d          -9.792   2.499  -2.774  0.00  0.00    -0.206 OA
ENDBRANCH  17  19
ENDBRANCH  15  17
ENDBRANCH   2   7
BRANCH   1  23
ATOM     23  O2  <0> d           0.249   0.926  -0.273  0.00  0.00    -0.354 OA
ATOM     24  C1  <0> d          -0.235   2.125  -0.881  0.00  0.00     0.210 C 
ENDBRANCH   1  23
BRANCH   6  25
ATOM     25  C32 <0> d           3.016   0.385  -0.367  0.00  0.00    -0.021 C 
ATOM     26  C33 <0> d           4.412  -0.198  -0.596  0.00  0.00     0.019 C 
ATOM     27  C34 <0> d           3.007   1.859  -0.777  0.00  0.00     0.019 C 
ATOM     28  C35 <0> d           2.649   0.264   1.113  0.00  0.00     0.019 C 
ENDBRANCH   6  25
BRANCH   4  29
ATOM     29  N22 <0> d           1.956  -3.105  -3.666  0.00  0.00    -0.275 N 
ATOM     30  C28 <0> d           1.874  -2.937  -4.998  0.00  0.00     0.333 A 
ATOM     31  N27 <0> d           2.292  -3.897  -5.843  0.00  0.00    -0.275 N 
ATOM     32  O29 <0> d           1.425  -1.899  -5.444  0.00  0.00    -0.246 OA
ATOM     33  C25 <0> d           2.792  -5.054  -5.365  0.00  0.00     0.250 A 
ATOM     34  H52 <0> d           2.229  -3.757  -6.801  0.00  0.00     0.173 HD
ATOM     35  C24 <0> d           2.880  -5.247  -3.965  0.00  0.00     0.092 A 
ATOM     36  O26 <0> d           3.166  -5.925  -6.130  0.00  0.00    -0.268 OA
ATOM     37  C23 <0> d           2.458  -4.266  -3.139  0.00  0.00     0.107 A 
ENDBRANCH   4  29
TORSDOF 6
