REMARK  0 active torsions:
REMARK  status: ('A' for Active; 'I' for Inactive)
ROOT
ATOM      1  O1  <0> d           0.002  -0.004   0.002  0.00  0.00    -0.247 OA
ATOM      2  C2  <0> d          -0.014   1.212   0.009  0.00  0.00     0.327 A 
ATOM      3  N3  <0> d          -1.194   1.859   0.029  0.00  0.00    -0.316 N 
ATOM      4  C4  <0> d          -1.238   3.229   0.037  0.00  0.00     0.140 A 
ATOM      5  C5  <0> d          -0.087   3.935   0.025  0.00  0.00     0.199 A 
ATOM      6  F6  <0> d          -0.112   5.285   0.033  0.00  0.00    -0.199 F 
ATOM      7  C7  <0> d           1.148   3.239   0.004  0.00  0.00     0.289 A 
ATOM      8  O8  <0> d           2.199   3.854  -0.008  0.00  0.00    -0.265 OA
ATOM      9  N9  <0> d           1.148   1.891   0.001  0.00  0.00    -0.273 N 
ATOM     10  H10 <0> d          -2.020   1.351   0.038  0.00  0.00     0.170 HD
ATOM     11  H12 <0> d           1.989   1.408  -0.013  0.00  0.00     0.173 HD
ENDROOT
TORSDOF 0
