REMARK  10 active torsions:
REMARK  status: ('A' for Active; 'I' for Inactive)
REMARK    1  A    between atoms: C2_2  and  C3_3 
REMARK    2  A    between atoms: C3_3  and  C4_4 
REMARK    3  A    between atoms: C4_4  and  O6_6 
REMARK    4  A    between atoms: O6_6  and  C7_7 
REMARK    5  A    between atoms: C7_7  and  O8_8 
REMARK    6  A    between atoms: O8_8  and  C9_9 
REMARK    7  A    between atoms: C9_9  and  C11_11 
REMARK    8  A    between atoms: C17_17  and  C18_18 
REMARK    9  A    between atoms: C18_18  and  O20_20 
REMARK   10  A    between atoms: C22_22  and  C24_23 
ROOT
ATOM      1  C11 ZIN AC000      -1.636  -5.060  -4.239  0.00  0.00     0.052 C 
ATOM      2  C12 ZIN AC000      -2.049  -4.861  -5.503  0.00  0.00     0.018 C 
ATOM      3  C13 ZIN AC000      -1.110  -4.238  -6.503  0.00  0.00     0.069 C 
ATOM      4  N14 ZIN AC000      -3.311  -5.219  -5.892  0.00  0.00    -0.362 N 
ATOM      5  C15 ZIN AC000      -4.285  -5.442  -4.957  0.00  0.00     0.018 C 
ATOM      6  C16 ZIN AC000      -5.732  -5.439  -5.374  0.00  0.00     0.069 C 
ATOM      7  C17 ZIN AC000      -3.965  -5.665  -3.670  0.00  0.00     0.052 C 
ATOM      8  C22 ZIN AC000      -2.533  -5.691  -3.212  0.00  0.00     0.102 C 
ATOM      9  H44 ZIN AC000      -3.517  -5.314  -6.835  0.00  0.00     0.165 HD
ENDROOT
BRANCH   1  10
ATOM     10  C9  ZIN AC000      -0.328  -4.671  -3.870  0.00  0.00     0.294 C 
ATOM     11  O10 ZIN AC000      -0.158  -3.677  -3.188  0.00  0.00    -0.259 OA
BRANCH  10  12
ATOM     12  O8  ZIN AC000       0.733  -5.402  -4.273  0.00  0.00    -0.291 OA
BRANCH  12  13
ATOM     13  C7  ZIN AC000       2.025  -4.951  -3.863  0.00  0.00     0.358 C 
BRANCH  13  14
ATOM     14  O6  ZIN AC000       2.223  -5.262  -2.459  0.00  0.00    -0.295 OA
BRANCH  14  15
ATOM     15  C4  ZIN AC000       2.473  -6.543  -2.147  0.00  0.00     0.260 C 
ATOM     16  O5  ZIN AC000       2.525  -7.378  -3.019  0.00  0.00    -0.265 OA
BRANCH  15  17
ATOM     17  C3  ZIN AC000       2.690  -6.941  -0.710  0.00  0.00     0.111 C 
BRANCH  17  18
ATOM     18  C2  ZIN AC000       2.954  -8.446  -0.631  0.00  0.00     0.005 C 
ATOM     19  C1  ZIN AC000       3.174  -8.850   0.828  0.00  0.00     0.005 C 
ENDBRANCH  17  18
ENDBRANCH  15  17
ENDBRANCH  14  15
ENDBRANCH  13  14
ENDBRANCH  12  13
ENDBRANCH  10  12
ENDBRANCH   1  10
BRANCH   8  20
ATOM     20  C24 ZIN AC000      -2.111  -7.119  -2.983  0.00  0.00    -0.021 A 
ATOM     21  C30 ZIN AC000      -1.686  -7.523  -1.730  0.00  0.00     0.063 A 
ATOM     22  C28 ZIN AC000      -1.303  -8.837  -1.520  0.00  0.00     0.056 A 
ATOM     23 Cl31 ZIN AC000      -1.645  -6.386  -0.419  0.00  0.00    -0.082 Cl
ATOM     24  C27 ZIN AC000      -1.335  -9.742  -2.566  0.00  0.00     0.026 A 
ATOM     25 Cl29 ZIN AC000      -0.776  -9.346   0.054  0.00  0.00    -0.083 Cl
ATOM     26  C26 ZIN AC000      -1.755  -9.335  -3.818  0.00  0.00     0.002 A 
ATOM     27  C25 ZIN AC000      -2.143  -8.025  -4.027  0.00  0.00     0.010 A 
ENDBRANCH   8  20
BRANCH   7  28
ATOM     28  C18 ZIN AC000      -4.997  -5.885  -2.729  0.00  0.00     0.291 C 
ATOM     29  O19 ZIN AC000      -6.160  -5.871  -3.087  0.00  0.00    -0.260 OA
BRANCH  28  30
ATOM     30  O20 ZIN AC000      -4.693  -6.109  -1.434  0.00  0.00    -0.323 OA
ATOM     31  C21 ZIN AC000      -5.786  -6.324  -0.538  0.00  0.00     0.213 C 
ENDBRANCH  28  30
ENDBRANCH   7  28
TORSDOF 10
