REMARK  7 active torsions:
REMARK  status: ('A' for Active; 'I' for Inactive)
REMARK    1  A    between atoms: O2_2  and  C3_3 
REMARK    2  A    between atoms: N7_7  and  C8_8 
REMARK    3  A    between atoms: C11_10  and  C13_11 
REMARK    4  A    between atoms: C13_11  and  O14_12 
REMARK    5  A    between atoms: C15_13  and  O17_14 
REMARK    6  A    between atoms: C18_15  and  O20_16 
REMARK    7  A    between atoms: C23_19  and  N24_20 
ROOT
ATOM      1  C3  ZIN AC000       0.624  -0.616   1.038  0.00  0.00     0.216 A 
ATOM      2  C4  ZIN AC000       0.694  -2.016   1.105  0.00  0.00     0.158 A 
ATOM      3  N5  ZIN AC000       0.254  -3.030   0.319  0.00  0.00    -0.235 NA
ATOM      4  C6  ZIN AC000       0.591  -4.168   0.852  0.00  0.00     0.214 A 
ATOM      5  N7  ZIN AC000       1.270  -3.956   2.015  0.00  0.00    -0.293 N 
ATOM      6  C21 ZIN AC000       1.351  -2.599   2.203  0.00  0.00     0.185 A 
ATOM      7  N22 ZIN AC000       1.881  -1.812   3.132  0.00  0.00    -0.042 NA
ATOM      8  C23 ZIN AC000       1.792  -0.495   3.029  0.00  0.00     0.724 A 
ATOM      9  N25 ZIN AC000       1.184   0.095   2.008  0.00  0.00    -0.036 NA
ENDROOT
BRANCH   5  10
ATOM     10  C8  ZIN AC000       1.814  -4.987   2.902  0.00  0.00     0.262 C 
ATOM     11  C18 ZIN AC000       0.793  -5.347   4.011  0.00  0.00     0.198 C 
ATOM     12  C15 ZIN AC000       1.224  -6.786   4.392  0.00  0.00     0.182 C 
ATOM     13  C11 ZIN AC000       2.026  -7.277   3.171  0.00  0.00     0.179 C 
ATOM     14  O10 ZIN AC000       1.993  -6.229   2.188  0.00  0.00    -0.353 OA
BRANCH  11  15
ATOM     15  O20 ZIN AC000      -0.540  -5.333   3.497  0.00  0.00    -0.388 OA
ATOM     16  H34 ZIN AC000      -1.208  -5.640   4.125  0.00  0.00     0.210 HD
ENDBRANCH  11  15
BRANCH  12  17
ATOM     17  O17 ZIN AC000       2.048  -6.769   5.558  0.00  0.00    -0.390 OA
ATOM     18  H33 ZIN AC000       2.394  -7.636   5.809  0.00  0.00     0.210 HD
ENDBRANCH  12  17
BRANCH  13  19
ATOM     19  C13 ZIN AC000       1.387  -8.546   2.601  0.00  0.00     0.198 C 
BRANCH  19  20
ATOM     20  O14 ZIN AC000       2.196  -9.048   1.535  0.00  0.00    -0.398 OA
ATOM     21  H32 ZIN AC000       1.851  -9.853   1.125  0.00  0.00     0.209 HD
ENDBRANCH  19  20
ENDBRANCH  13  19
ENDBRANCH   5  10
BRANCH   1  22
ATOM     22  O2  ZIN AC000       0.002  -0.004   0.002  0.00  0.00    -0.337 OA
ATOM     23  C1  ZIN AC000      -0.017   1.425   0.010  0.00  0.00     0.211 C 
ENDBRANCH   1  22
BRANCH   8  24
ATOM     24  N24 ZIN AC000       2.357   0.293   4.018  0.00  0.00    -0.231 N 
ATOM     25  H35 ZIN AC000       2.808  -0.121   4.770  0.00  0.00     0.174 HD
ATOM     26  H36 ZIN AC000       2.301   1.260   3.958  0.00  0.00     0.174 HD
ENDBRANCH   8  24
TORSDOF 7
