REMARK  12 active torsions:
REMARK  status: ('A' for Active; 'I' for Inactive)
REMARK    1  A    between atoms: N1_1  and  C5_5 
REMARK    2  A    between atoms: C5_5  and  C6_6 
REMARK    3  A    between atoms: C6_6  and  N7_7 
REMARK    4  A    between atoms: N7_7  and  C8_8 
REMARK    5  A    between atoms: C8_8  and  C9_9 
REMARK    6  A    between atoms: C9_9  and  N10_10 
REMARK    7  A    between atoms: N10_10  and  C11_11 
REMARK    8  A    between atoms: C11_11  and  C12_12 
REMARK    9  A    between atoms: C12_12  and  N13_13 
REMARK   10  A    between atoms: N13_13  and  C14_14 
REMARK   11  A    between atoms: C14_14  and  C15_15 
REMARK   12  A    between atoms: C15_15  and  N16_16 
ROOT
ATOM      1  N10 <0> d          -6.272   0.956   3.795  0.00  0.00     0.086 N 
ATOM      2  H29 <0> d          -6.778   1.223   2.963  0.00  0.00     0.315 HD
ENDROOT
BRANCH   1   3
ATOM      3  C9  <0> d          -4.888   1.446   3.750  0.00  0.00     0.299 C 
BRANCH   3   4
ATOM      4  C8  <0> d          -4.206   0.933   2.480  0.00  0.00     0.299 C 
BRANCH   4   5
ATOM      5  N7  <0> d          -2.822   1.423   2.436  0.00  0.00     0.086 N 
ATOM      6  H24 <0> d          -2.317   1.156   3.267  0.00  0.00     0.315 HD
BRANCH   5   7
ATOM      7  C6  <0> d          -2.135   0.949   1.227  0.00  0.00     0.296 C 
BRANCH   7   8
ATOM      8  C5  <0> d          -0.699   1.479   1.216  0.00  0.00     0.259 C 
BRANCH   8   9
ATOM      9  N1  <0> d          -0.012   1.005   0.008  0.00  0.00    -0.078 N 
ATOM     10  H2  <0> d           0.002  -0.004   0.002  0.00  0.00     0.274 HD
ATOM     11  H3  <0> d           0.935   1.354   0.000  0.00  0.00     0.274 HD
ATOM     12  H4  <0> d          -0.500   1.339  -0.810  0.00  0.00     0.274 HD
ENDBRANCH   8   9
ENDBRANCH   7   8
ENDBRANCH   5   7
ENDBRANCH   4   5
ENDBRANCH   3   4
ENDBRANCH   1   3
BRANCH   1  13
ATOM     13  C11 <0> d          -6.960   1.429   5.003  0.00  0.00     0.299 C 
BRANCH  13  14
ATOM     14  C12 <0> d          -8.395   0.900   5.014  0.00  0.00     0.299 C 
BRANCH  14  15
ATOM     15  N13 <0> d          -9.083   1.373   6.223  0.00  0.00     0.086 N 
ATOM     16  H34 <0> d          -8.578   1.106   7.054  0.00  0.00     0.315 HD
BRANCH  15  17
ATOM     17  C14 <0> d         -10.467   0.883   6.267  0.00  0.00     0.296 C 
BRANCH  17  18
ATOM     18  C15 <0> d         -11.149   1.396   7.537  0.00  0.00     0.259 C 
BRANCH  18  19
ATOM     19  N16 <0> d         -12.533   0.906   7.582  0.00  0.00    -0.078 N 
ATOM     20  H17 <0> d         -13.035   1.240   6.772  0.00  0.00     0.274 HD
ATOM     21  H18 <0> d         -12.533  -0.103   7.584  0.00  0.00     0.274 HD
ATOM     22  H19 <0> d         -12.983   1.244   8.419  0.00  0.00     0.274 HD
ENDBRANCH  18  19
ENDBRANCH  17  18
ENDBRANCH  15  17
ENDBRANCH  14  15
ENDBRANCH  13  14
ENDBRANCH   1  13
TORSDOF 12
