REMARK  15 active torsions:
REMARK  status: ('A' for Active; 'I' for Inactive)
REMARK    1  A    between atoms: C2_2  and  C3_3 
REMARK    2  A    between atoms: C3_3  and  C4_4 
REMARK    3  A    between atoms: C4_4  and  C5_5 
REMARK    4  A    between atoms: C5_5  and  C6_6 
REMARK    5  A    between atoms: C6_6  and  C7_7 
REMARK    6  A    between atoms: C7_7  and  C8_8 
REMARK    7  A    between atoms: C8_8  and  C9_9 
REMARK    8  A    between atoms: C10_10  and  C11_11 
REMARK    9  A    between atoms: C11_11  and  C12_12 
REMARK   10  A    between atoms: C12_12  and  C13_13 
REMARK   11  A    between atoms: C13_13  and  C14_14 
REMARK   12  A    between atoms: C14_14  and  C15_15 
REMARK   13  A    between atoms: C15_15  and  C16_16 
REMARK   14  A    between atoms: C16_16  and  C17_17 
REMARK   15  A    between atoms: C17_17  and  C18_18 
ROOT
ATOM      1  C9  <0> d          -5.641  -6.764   0.057  0.00  0.00    -0.031 C 
ATOM      2  C10 <0> d          -6.083  -7.458  -0.963  0.00  0.00    -0.031 C 
ENDROOT
BRANCH   2   3
ATOM      3  C11 <0> d          -5.131  -7.896  -2.045  0.00  0.00     0.027 C 
BRANCH   3   4
ATOM      4  C12 <0> d          -5.247  -9.408  -2.245  0.00  0.00     0.004 C 
BRANCH   4   5
ATOM      5  C13 <0> d          -4.281  -9.853  -3.344  0.00  0.00     0.000 C 
BRANCH   5   6
ATOM      6  C14 <0> d          -4.397 -11.366  -3.544  0.00  0.00     0.000 C 
BRANCH   6   7
ATOM      7  C15 <0> d          -3.431 -11.811  -4.644  0.00  0.00     0.001 C 
BRANCH   7   8
ATOM      8  C16 <0> d          -3.547 -13.323  -4.843  0.00  0.00     0.010 C 
BRANCH   8   9
ATOM      9  C17 <0> d          -2.580 -13.768  -5.943  0.00  0.00     0.113 C 
BRANCH   9  10
ATOM     10  C18 <0> d          -2.695 -15.258  -6.140  0.00  0.00     0.172 C 
ATOM     11  O19 <0> d          -3.478 -15.904  -5.463  0.00  0.00    -0.648 OA
ATOM     12  O20 <0> d          -2.006 -15.817  -6.975  0.00  0.00    -0.648 OA
ENDBRANCH   9  10
ENDBRANCH   8   9
ENDBRANCH   7   8
ENDBRANCH   6   7
ENDBRANCH   5   6
ENDBRANCH   4   5
ENDBRANCH   3   4
ENDBRANCH   2   3
BRANCH   1  13
ATOM     13  C8  <0> d          -4.221  -6.260   0.067  0.00  0.00     0.027 C 
BRANCH  13  14
ATOM     14  C7  <0> d          -4.216  -4.756   0.350  0.00  0.00     0.004 C 
BRANCH  14  15
ATOM     15  C6  <0> d          -2.774  -4.244   0.359  0.00  0.00     0.000 C 
BRANCH  15  16
ATOM     16  C5  <0> d          -2.769  -2.740   0.642  0.00  0.00     0.000 C 
BRANCH  16  17
ATOM     17  C4  <0> d          -1.327  -2.228   0.651  0.00  0.00     0.000 C 
BRANCH  17  18
ATOM     18  C3  <0> d          -1.322  -0.725   0.934  0.00  0.00    -0.000 C 
BRANCH  18  19
ATOM     19  C2  <0> d           0.119  -0.212   0.944  0.00  0.00    -0.005 C 
ATOM     20  C1  <0> d           0.124   1.291   1.226  0.00  0.00     0.005 C 
ENDBRANCH  18  19
ENDBRANCH  17  18
ENDBRANCH  16  17
ENDBRANCH  15  16
ENDBRANCH  14  15
ENDBRANCH  13  14
ENDBRANCH   1  13
TORSDOF 15
