REMARK  11 active torsions:
REMARK  status: ('A' for Active; 'I' for Inactive)
REMARK    1  A    between atoms: C2_2  and  O3_3 
REMARK    2  A    between atoms: O3_3  and  C4_4 
REMARK    3  A    between atoms: C4_4  and  C6_6 
REMARK    4  A    between atoms: C7_7  and  C8_8 
REMARK    5  A    between atoms: C8_8  and  O9_9 
REMARK    6  A    between atoms: O9_9  and  C10_10 
REMARK    7  A    between atoms: C10_10  and  C11_11 
REMARK    8  A    between atoms: C11_11  and  N12_12 
REMARK    9  A    between atoms: C19_19  and  C20_20 
REMARK   10  A    between atoms: C20_20  and  O22_22 
REMARK   11  A    between atoms: C24_24  and  C26_25 
ROOT
ATOM      1  C6  ZIN AC000       1.327  -2.340  -2.532  0.00  0.00     0.055 C 
ATOM      2  C7  ZIN AC000       1.607  -3.654  -2.576  0.00  0.00     0.046 C 
ATOM      3  N16 ZIN AC000       2.338  -4.181  -3.605  0.00  0.00    -0.360 N 
ATOM      4  C17 ZIN AC000       3.095  -3.366  -4.402  0.00  0.00     0.018 C 
ATOM      5  C18 ZIN AC000       4.186  -3.963  -5.254  0.00  0.00     0.069 C 
ATOM      6  C19 ZIN AC000       2.878  -2.040  -4.435  0.00  0.00     0.052 C 
ATOM      7  C24 ZIN AC000       1.791  -1.404  -3.612  0.00  0.00     0.102 C 
ATOM      8  H44 ZIN AC000       2.320  -5.137  -3.771  0.00  0.00     0.165 HD
ENDROOT
BRANCH   2   9
ATOM      9  C8  ZIN AC000       1.109  -4.558  -1.478  0.00  0.00     0.225 C 
BRANCH   9  10
ATOM     10  O9  ZIN AC000       0.157  -5.479  -2.014  0.00  0.00    -0.384 OA
BRANCH  10  11
ATOM     11  C10 ZIN AC000      -0.381  -6.387  -1.050  0.00  0.00     0.195 C 
BRANCH  11  12
ATOM     12  C11 ZIN AC000      -1.383  -7.320  -1.732  0.00  0.00     0.255 C 
BRANCH  12  13
ATOM     13  N12 ZIN AC000      -0.682  -8.162  -2.710  0.00  0.00    -0.077 N 
ATOM     14  H13 ZIN AC000      -0.242  -7.576  -3.404  0.00  0.00     0.274 HD
ATOM     15  H14 ZIN AC000       0.021  -8.711  -2.238  0.00  0.00     0.274 HD
ATOM     16  H15 ZIN AC000      -1.343  -8.777  -3.159  0.00  0.00     0.274 HD
ENDBRANCH  12  13
ENDBRANCH  11  12
ENDBRANCH  10  11
ENDBRANCH   9  10
ENDBRANCH   2   9
BRANCH   1  17
ATOM     17  C4  ZIN AC000       0.576  -1.829  -1.449  0.00  0.00     0.292 C 
ATOM     18  O5  ZIN AC000       1.138  -1.258  -0.533  0.00  0.00    -0.259 OA
BRANCH  17  19
ATOM     19  O3  ZIN AC000      -0.766  -1.973  -1.431  0.00  0.00    -0.318 OA
BRANCH  19  20
ATOM     20  C2  ZIN AC000      -1.462  -1.432  -0.306  0.00  0.00     0.174 C 
ATOM     21  C1  ZIN AC000      -2.962  -1.691  -0.462  0.00  0.00     0.034 C 
ENDBRANCH  19  20
ENDBRANCH  17  19
ENDBRANCH   1  17
BRANCH   7  22
ATOM     22  C26 ZIN AC000       0.631  -1.053  -4.508  0.00  0.00    -0.023 A 
ATOM     23  C31 ZIN AC000       0.217   0.262  -4.620  0.00  0.00     0.041 A 
ATOM     24  C30 ZIN AC000      -0.843   0.585  -5.448  0.00  0.00     0.024 A 
ATOM     25 Cl32 ZIN AC000       1.039   1.510  -3.736  0.00  0.00    -0.084 Cl
ATOM     26  C29 ZIN AC000      -1.497  -0.409  -6.152  0.00  0.00     0.002 A 
ATOM     27  C28 ZIN AC000      -1.087  -1.724  -6.034  0.00  0.00     0.001 A 
ATOM     28  C27 ZIN AC000      -0.023  -2.046  -5.212  0.00  0.00     0.010 A 
ENDBRANCH   7  22
BRANCH   6  29
ATOM     29  C20 ZIN AC000       3.684  -1.227  -5.264  0.00  0.00     0.291 C 
ATOM     30  O21 ZIN AC000       4.564  -1.729  -5.939  0.00  0.00    -0.260 OA
BRANCH  29  31
ATOM     31  O22 ZIN AC000       3.478   0.106  -5.308  0.00  0.00    -0.323 OA
ATOM     32  C23 ZIN AC000       4.330   0.866  -6.168  0.00  0.00     0.213 C 
ENDBRANCH  29  31
ENDBRANCH   6  29
TORSDOF 11
