REMARK  6 active torsions:
REMARK  status: ('A' for Active; 'I' for Inactive)
REMARK    1  A    between atoms: C5_5  and  C6_6 
REMARK    2  A    between atoms: C6_6  and  C14_14 
REMARK    3  A    between atoms: C7_7  and  C8_8 
REMARK    4  A    between atoms: C8_8  and  N9_9 
REMARK    5  A    between atoms: C18_18  and  C19_19 
REMARK    6  A    between atoms: C20_20  and  C21_21 
ROOT
ATOM      1  C6  <0> d           0.061  -4.255  -0.021  0.00  0.00     0.001 C 
ATOM      2  C7  <0> d           1.123  -4.912   0.460  0.00  0.00     0.018 C 
ENDROOT
BRANCH   1   3
ATOM      3  C5  <0> d           0.040  -2.772  -0.013  0.00  0.00    -0.024 A 
ATOM      4  C4  <0> d           0.024  -2.066  -1.215  0.00  0.00     0.013 A 
ATOM      5  C3  <0> d           0.006  -0.686  -1.201  0.00  0.00     0.007 A 
ATOM      6  C2  <0> d           0.002  -0.004   0.002  0.00  0.00    -0.062 A 
ATOM      7  C1  <0> d          -0.018   1.503   0.010  0.00  0.00     0.048 C 
ATOM      8  C26 <0> d           0.023  -0.699   1.198  0.00  0.00     0.007 A 
ATOM      9  C25 <0> d           0.037  -2.079   1.196  0.00  0.00     0.013 A 
ENDBRANCH   1   3
BRANCH   1  10
ATOM     10  C14 <0> d          -1.095  -5.010  -0.562  0.00  0.00     0.068 A 
ATOM     11  N24 <0> d          -2.142  -4.353  -1.036  0.00  0.00    -0.248 NA
ATOM     12  C18 <0> d          -3.195  -4.992  -1.535  0.00  0.00     0.057 A 
ATOM     13  C17 <0> d          -3.232  -6.388  -1.562  0.00  0.00     0.031 A 
ATOM     14  C16 <0> d          -2.154  -7.104  -1.068  0.00  0.00     0.005 A 
ATOM     15  C15 <0> d          -1.070  -6.406  -0.561  0.00  0.00     0.032 A 
BRANCH  12  16
ATOM     16  C19 <0> d          -4.336  -4.220  -2.057  0.00  0.00     0.038 C 
ATOM     17  C20 <0> d          -4.307  -2.872  -2.034  0.00  0.00     0.086 C 
BRANCH  17  18
ATOM     18  C21 <0> d          -5.439  -2.107  -2.552  0.00  0.00     0.198 C 
ATOM     19  O22 <0> d          -6.415  -2.690  -3.008  0.00  0.00    -0.645 OA
ATOM     20  O23 <0> d          -5.413  -0.882  -2.531  0.00  0.00    -0.645 OA
ENDBRANCH  17  18
ENDBRANCH  12  16
ENDBRANCH   1  10
BRANCH   2  21
ATOM     21  C8  <0> d           2.298  -4.146   1.010  0.00  0.00     0.300 C 
BRANCH  21  22
ATOM     22  N9  <0> d           2.576  -4.592   2.381  0.00  0.00     0.091 N 
ATOM     23  C13 <0> d           3.560  -3.706   3.038  0.00  0.00     0.273 C 
ATOM     24  C12 <0> d           4.412  -4.588   3.970  0.00  0.00     0.032 C 
ATOM     25  C11 <0> d           3.869  -6.023   3.774  0.00  0.00     0.032 C 
ATOM     26  C10 <0> d           3.184  -5.947   2.387  0.00  0.00     0.273 C 
ENDBRANCH  21  22
ENDBRANCH   2  21
TORSDOF 6
