REMARK  16 active torsions:
REMARK  status: ('A' for Active; 'I' for Inactive)
REMARK       I    between atoms: C2_2  and  N4_4 
REMARK    1  A    between atoms: N4_4  and  C5_5 
REMARK    2  A    between atoms: N4_4  and  C11_10 
REMARK    3  A    between atoms: C5_5  and  C6_6 
REMARK    4  A    between atoms: C6_6  and  O8_7 
REMARK    5  A    between atoms: C6_6  and  C9_8 
REMARK    6  A    between atoms: C9_8  and  O10_9 
REMARK    7  A    between atoms: C14_13  and  C15_14 
REMARK       I    between atoms: C15_14  and  N17_16 
REMARK    8  A    between atoms: N17_16  and  C18_17 
REMARK    9  A    between atoms: C18_17  and  C19_18 
REMARK   10  A    between atoms: C19_18  and  O20_19 
REMARK   11  A    between atoms: C23_22  and  C24_23 
REMARK       I    between atoms: C24_23  and  N26_25 
REMARK   12  A    between atoms: N26_25  and  C27_26 
REMARK   13  A    between atoms: C27_26  and  C28_27 
REMARK   14  A    between atoms: C28_27  and  O30_28 
REMARK   15  A    between atoms: C28_27  and  C31_29 
REMARK   16  A    between atoms: C31_29  and  O32_30 
ROOT
ATOM      1  C11 ZIN AC000      -1.097   0.171  -1.812  0.00  0.00     0.072 A 
ATOM      2  C12 ZIN AC000      -2.371   0.669  -1.581  0.00  0.00     0.051 A 
ATOM      3  I13 ZIN AC000      -3.398   0.144   0.168  0.00  0.00    -0.041 I 
ATOM      4  C14 ZIN AC000      -2.970   1.520  -2.514  0.00  0.00     0.068 A 
ATOM      5  C21 ZIN AC000      -2.286   1.868  -3.677  0.00  0.00     0.040 A 
ATOM      6  I22 ZIN AC000      -3.179   3.144  -5.078  0.00  0.00    -0.042 I 
ATOM      7  C23 ZIN AC000      -1.006   1.366  -3.906  0.00  0.00     0.068 A 
ATOM      8  C33 ZIN AC000      -0.411   0.520  -2.967  0.00  0.00     0.051 A 
ATOM      9  I34 ZIN AC000       1.513  -0.235  -3.309  0.00  0.00    -0.041 I 
ENDROOT
BRANCH   1  10
ATOM     10  N4  ZIN AC000      -0.500  -0.682  -0.876  0.00  0.00    -0.313 N 
ATOM     11  C2  ZIN AC000       0.362  -0.186   0.034  0.00  0.00     0.220 C 
ATOM     12  C1  ZIN AC000       0.684   1.286   0.043  0.00  0.00     0.117 C 
ATOM     13  O3  ZIN AC000       0.880  -0.924   0.845  0.00  0.00    -0.273 OA
BRANCH  10  14
ATOM     14  C5  ZIN AC000      -0.812  -2.113  -0.884  0.00  0.00     0.166 C 
BRANCH  14  15
ATOM     15  C6  ZIN AC000       0.143  -2.838  -1.834  0.00  0.00     0.160 C 
BRANCH  15  16
ATOM     16  O8  ZIN AC000       1.481  -2.719  -1.346  0.00  0.00    -0.392 OA
ATOM     17  H40 ZIN AC000       1.614  -3.096  -0.466  0.00  0.00     0.210 HD
ENDBRANCH  15  16
BRANCH  15  18
ATOM     18  C9  ZIN AC000      -0.241  -4.317  -1.914  0.00  0.00     0.197 C 
BRANCH  18  19
ATOM     19  O10 ZIN AC000       0.576  -4.970  -2.888  0.00  0.00    -0.398 OA
ATOM     20  H43 ZIN AC000       0.387  -5.912  -2.991  0.00  0.00     0.209 HD
ENDBRANCH  18  19
ENDBRANCH  15  18
ENDBRANCH  14  15
ENDBRANCH  10  14
ENDBRANCH   1  10
BRANCH   7  21
ATOM     21  C24 ZIN AC000      -0.276   1.733  -5.138  0.00  0.00     0.254 C 
ATOM     22  O25 ZIN AC000       0.439   2.716  -5.150  0.00  0.00    -0.268 OA
ATOM     23  N26 ZIN AC000      -0.403   0.978  -6.247  0.00  0.00    -0.354 N 
ATOM     24  H50 ZIN AC000      -0.974   0.193  -6.236  0.00  0.00     0.162 HD
BRANCH  23  25
ATOM     25  C27 ZIN AC000       0.320   1.341  -7.468  0.00  0.00     0.156 C 
BRANCH  25  26
ATOM     26  C28 ZIN AC000       0.003   0.328  -8.569  0.00  0.00     0.159 C 
BRANCH  26  27
ATOM     27  O30 ZIN AC000       0.407  -0.976  -8.147  0.00  0.00    -0.392 OA
ATOM     28  H53 ZIN AC000       1.351  -1.052  -7.952  0.00  0.00     0.210 HD
ENDBRANCH  26  27
BRANCH  26  29
ATOM     29  C31 ZIN AC000       0.758   0.708  -9.844  0.00  0.00     0.197 C 
BRANCH  29  30
ATOM     30  O32 ZIN AC000       0.374  -0.169 -10.905  0.00  0.00    -0.398 OA
ATOM     31  H56 ZIN AC000       0.814   0.014 -11.746  0.00  0.00     0.209 HD
ENDBRANCH  29  30
ENDBRANCH  26  29
ENDBRANCH  25  26
ENDBRANCH  23  25
ENDBRANCH   7  21
BRANCH   4  32
ATOM     32  C15 ZIN AC000      -4.327   2.050  -2.266  0.00  0.00     0.254 C 
ATOM     33  O16 ZIN AC000      -4.470   3.100  -1.671  0.00  0.00    -0.268 OA
ATOM     34  N17 ZIN AC000      -5.406   1.369  -2.700  0.00  0.00    -0.355 N 
ATOM     35  H44 ZIN AC000      -5.292   0.531  -3.175  0.00  0.00     0.162 HD
BRANCH  34  36
ATOM     36  C18 ZIN AC000      -6.751   1.895  -2.455  0.00  0.00     0.148 C 
BRANCH  36  37
ATOM     37  C19 ZIN AC000      -7.788   0.937  -3.045  0.00  0.00     0.183 C 
BRANCH  37  38
ATOM     38  O20 ZIN AC000      -7.737  -0.309  -2.348  0.00  0.00    -0.399 OA
ATOM     39  H49 ZIN AC000      -8.369  -0.967  -2.670  0.00  0.00     0.209 HD
ENDBRANCH  37  38
ENDBRANCH  36  37
ENDBRANCH  34  36
ENDBRANCH   4  32
TORSDOF 16
