REMARK  3 active torsions:
REMARK  status: ('A' for Active; 'I' for Inactive)
REMARK    1  A    between atoms: C2_2  and  C4_4 
REMARK    2  A    between atoms: C9_8  and  C10_9 
REMARK    3  A    between atoms: C10_9  and  C12_11 
ROOT
ATOM      1  C4  ZIN AC000      -0.626   1.930   0.081  0.00  0.00     0.138 C 
ATOM      2  C6  ZIN AC000      -0.849   2.432  -1.362  0.00  0.00     0.042 C 
ATOM      3  C7  ZIN AC000      -0.478   3.925  -1.239  0.00  0.00     0.130 C 
ATOM      4  N8  ZIN AC000      -0.720   4.278   0.170  0.00  0.00    -0.346 N 
ATOM      5  C9  ZIN AC000      -0.891   5.385   0.980  0.00  0.00     0.086 A 
ATOM      6  C18 ZIN AC000      -1.079   4.933   2.270  0.00  0.00     0.036 A 
ATOM      7  C19 ZIN AC000      -1.021   3.539   2.228  0.00  0.00     0.028 A 
ATOM      8  C20 ZIN AC000      -0.804   3.165   0.942  0.00  0.00     0.026 A 
ENDROOT
BRANCH   5   9
ATOM      9  C10 ZIN AC000      -0.876   6.784   0.547  0.00  0.00     0.208 C 
ATOM     10  O11 ZIN AC000      -0.823   7.054  -0.639  0.00  0.00    -0.285 OA
BRANCH   9  11
ATOM     11  C12 ZIN AC000      -0.926   7.869   1.550  0.00  0.00     0.016 A 
ATOM     12  C17 ZIN AC000      -1.498   9.101   1.224  0.00  0.00     0.015 A 
ATOM     13  C16 ZIN AC000      -1.546  10.107   2.166  0.00  0.00     0.001 A 
ATOM     14  C15 ZIN AC000      -1.019   9.901   3.429  0.00  0.00     0.000 A 
ATOM     15  C14 ZIN AC000      -0.447   8.685   3.758  0.00  0.00     0.001 A 
ATOM     16  C13 ZIN AC000      -0.397   7.669   2.827  0.00  0.00     0.015 A 
ENDBRANCH   9  11
ENDBRANCH   5   9
BRANCH   1  17
ATOM     17  C2  ZIN AC000       0.767   1.376   0.237  0.00  0.00     0.183 C 
ATOM     18  O1  ZIN AC000       0.945   0.170   0.261  0.00  0.00    -0.647 OA
ATOM     19  O3  ZIN AC000       1.717   2.134   0.336  0.00  0.00    -0.647 OA
ENDBRANCH   1  17
TORSDOF 3
