REMARK  4 active torsions:
REMARK  status: ('A' for Active; 'I' for Inactive)
REMARK    1  A    between atoms: N2_2  and  C5_5 
REMARK    2  A    between atoms: C5_5  and  C6_6 
REMARK    3  A    between atoms: C6_6  and  C7_7 
REMARK    4  A    between atoms: C7_7  and  C8_8 
ROOT
ATOM      1  C8  ZIN AC000       1.447  -4.031  -2.482  0.00  0.00     0.053 C 
ATOM      2  C9  ZIN AC000       0.039  -4.545  -2.567  0.00  0.00    -0.039 A 
ATOM      3  C10 ZIN AC000      -0.422  -5.403  -1.586  0.00  0.00     0.009 A 
ATOM      4  C11 ZIN AC000      -1.712  -5.898  -1.639  0.00  0.00     0.001 A 
ATOM      5  C12 ZIN AC000      -2.552  -5.538  -2.679  0.00  0.00     0.001 A 
ATOM      6  C13 ZIN AC000      -2.107  -4.682  -3.661  0.00  0.00     0.012 A 
ATOM      7  C14 ZIN AC000      -0.802  -4.171  -3.612  0.00  0.00    -0.029 A 
ATOM      8  C15 ZIN AC000      -0.363  -3.247  -4.659  0.00  0.00     0.013 C 
ATOM      9  C16 ZIN AC000       0.817  -3.227  -5.237  0.00  0.00     0.013 C 
ATOM     10  C17 ZIN AC000       1.938  -4.126  -4.955  0.00  0.00    -0.029 A 
ATOM     11  C18 ZIN AC000       2.707  -4.609  -6.023  0.00  0.00     0.012 A 
ATOM     12  C19 ZIN AC000       3.771  -5.450  -5.785  0.00  0.00     0.001 A 
ATOM     13  C20 ZIN AC000       4.084  -5.822  -4.489  0.00  0.00     0.001 A 
ATOM     14  C21 ZIN AC000       3.329  -5.352  -3.430  0.00  0.00     0.009 A 
ATOM     15  C22 ZIN AC000       2.256  -4.508  -3.654  0.00  0.00    -0.039 A 
ENDROOT
BRANCH   1  16
ATOM     16  C7  ZIN AC000       1.427  -2.501  -2.474  0.00  0.00     0.016 C 
BRANCH  16  17
ATOM     17  C6  ZIN AC000       0.710  -2.008  -1.215  0.00  0.00     0.028 C 
BRANCH  17  18
ATOM     18  C5  ZIN AC000       0.690  -0.478  -1.207  0.00  0.00     0.231 C 
BRANCH  18  19
ATOM     19  N2  ZIN AC000       0.002  -0.004   0.002  0.00  0.00    -0.079 N 
ATOM     20  C1  ZIN AC000      -0.018   1.465   0.010  0.00  0.00     0.266 C 
ATOM     21  H3  ZIN AC000       0.490  -0.338   0.820  0.00  0.00     0.276 HD
ATOM     22  H4  ZIN AC000      -0.945  -0.353   0.009  0.00  0.00     0.276 HD
ENDBRANCH  18  19
ENDBRANCH  17  18
ENDBRANCH  16  17
ENDBRANCH   1  16
TORSDOF 4
