REMARK  15 active torsions:
REMARK  status: ('A' for Active; 'I' for Inactive)
REMARK    1  A    between atoms: C2_2  and  C3_3 
REMARK    2  A    between atoms: C3_3  and  C4_4 
REMARK    3  A    between atoms: C4_4  and  C5_5 
REMARK    4  A    between atoms: C5_5  and  C6_6 
REMARK    5  A    between atoms: C6_6  and  C7_7 
REMARK    6  A    between atoms: C7_7  and  N8_8 
REMARK    7  A    between atoms: N8_8  and  C10_10 
REMARK    8  A    between atoms: N8_8  and  C12_12 
REMARK    9  A    between atoms: C12_12  and  C13_13 
REMARK   10  A    between atoms: C13_13  and  C14_14 
REMARK   11  A    between atoms: C14_14  and  C15_15 
REMARK   12  A    between atoms: C15_15  and  O17_16 
REMARK   13  A    between atoms: C15_15  and  C18_17 
REMARK   14  A    between atoms: C21_20  and  N22_21 
REMARK   15  A    between atoms: N22_21  and  S23_22 
ROOT
ATOM      1  C15 ZIN AC000      -6.713 -10.608  -0.873  0.00  0.00     0.151 C 
ENDROOT
BRANCH   1   2
ATOM      2  C14 ZIN AC000      -6.919  -9.103  -1.055  0.00  0.00     0.038 C 
BRANCH   2   3
ATOM      3  C13 ZIN AC000      -5.619  -8.366  -0.729  0.00  0.00     0.030 C 
BRANCH   3   4
ATOM      4  C12 ZIN AC000      -5.825  -6.861  -0.912  0.00  0.00     0.235 C 
BRANCH   4   5
ATOM      5  N8  ZIN AC000      -4.619  -6.145  -0.476  0.00  0.00    -0.071 N 
ATOM      6  H9  ZIN AC000      -4.388  -6.418   0.467  0.00  0.00     0.279 HD
BRANCH   5   7
ATOM      7  C7  ZIN AC000      -3.502  -6.478  -1.370  0.00  0.00     0.234 C 
BRANCH   7   8
ATOM      8  C6  ZIN AC000      -2.218  -5.832  -0.845  0.00  0.00     0.028 C 
BRANCH   8   9
ATOM      9  C5  ZIN AC000      -1.055  -6.179  -1.776  0.00  0.00     0.002 C 
BRANCH   9  10
ATOM     10  C4  ZIN AC000       0.229  -5.533  -1.251  0.00  0.00     0.000 C 
BRANCH  10  11
ATOM     11  C3  ZIN AC000       1.392  -5.881  -2.182  0.00  0.00    -0.000 C 
BRANCH  11  12
ATOM     12  C2  ZIN AC000       2.676  -5.234  -1.657  0.00  0.00    -0.005 C 
ATOM     13  C1  ZIN AC000       3.839  -5.582  -2.588  0.00  0.00     0.005 C 
ENDBRANCH  11  12
ENDBRANCH  10  11
ENDBRANCH   9  10
ENDBRANCH   8   9
ENDBRANCH   7   8
ENDBRANCH   5   7
BRANCH   5  14
ATOM     14  C10 ZIN AC000      -4.866  -4.698  -0.520  0.00  0.00     0.230 C 
ATOM     15  C11 ZIN AC000      -5.923  -4.329   0.523  0.00  0.00     0.034 C 
ENDBRANCH   5  14
ENDBRANCH   4   5
ENDBRANCH   3   4
ENDBRANCH   2   3
ENDBRANCH   1   2
BRANCH   1  16
ATOM     16  O17 ZIN AC000      -5.762 -11.078  -1.831  0.00  0.00    -0.391 OA
ATOM     17  H55 ZIN AC000      -6.026 -10.935  -2.750  0.00  0.00     0.210 HD
ENDBRANCH   1  16
BRANCH   1  18
ATOM     18  C18 ZIN AC000      -8.024 -11.323  -1.074  0.00  0.00    -0.029 A 
ATOM     19  C28 ZIN AC000      -8.815 -11.634   0.017  0.00  0.00     0.012 A 
ATOM     20  C27 ZIN AC000     -10.019 -12.284  -0.165  0.00  0.00     0.031 A 
ATOM     21  C21 ZIN AC000     -10.431 -12.636  -1.444  0.00  0.00     0.042 A 
ATOM     22  C20 ZIN AC000      -9.631 -12.328  -2.537  0.00  0.00     0.031 A 
ATOM     23  C19 ZIN AC000      -8.430 -11.673  -2.349  0.00  0.00     0.012 A 
BRANCH  21  24
ATOM     24  N22 ZIN AC000     -11.646 -13.300  -1.630  0.00  0.00    -0.285 N 
ATOM     25  H58 ZIN AC000     -12.256 -13.008  -2.326  0.00  0.00     0.178 HD
BRANCH  24  26
ATOM     26  S23 ZIN AC000     -12.045 -14.584  -0.664  0.00  0.00     0.227 S 
ATOM     27  C24 ZIN AC000     -10.750 -15.812  -0.985  0.00  0.00     0.186 C 
ATOM     28  O25 ZIN AC000     -11.933 -14.075   0.658  0.00  0.00    -0.206 OA
ATOM     29  O26 ZIN AC000     -13.294 -15.031  -1.173  0.00  0.00    -0.206 OA
ENDBRANCH  24  26
ENDBRANCH  21  24
ENDBRANCH   1  18
TORSDOF 15
