REMARK  5 active torsions:
REMARK  status: ('A' for Active; 'I' for Inactive)
REMARK    1  A    between atoms: O2_2  and  C3_3 
REMARK    2  A    between atoms: C5_5  and  O6_6 
REMARK    3  A    between atoms: C7_7  and  C8_8 
REMARK    4  A    between atoms: C8_8  and  C10_10 
REMARK    5  A    between atoms: C17_17  and  S18_18 
ROOT
ATOM      1  C3  ZIN AC000       0.896  -0.049  -1.279  0.00  0.00     0.095 A 
ATOM      2  C4  ZIN AC000       1.508   0.537  -2.378  0.00  0.00     0.076 A 
ATOM      3  C5  ZIN AC000       2.029  -0.259  -3.384  0.00  0.00     0.082 A 
ATOM      4  C7  ZIN AC000       1.934  -1.656  -3.283  0.00  0.00     0.050 A 
ATOM      5  C16 ZIN AC000       1.313  -2.231  -2.167  0.00  0.00     0.047 A 
ATOM      6  C17 ZIN AC000       0.809  -1.435  -1.179  0.00  0.00     0.115 A 
ENDROOT
BRANCH   4   7
ATOM      7  C8  ZIN AC000       2.484  -2.513  -4.345  0.00  0.00     0.195 C 
ATOM      8  O9  ZIN AC000       3.531  -3.105  -4.167  0.00  0.00    -0.287 OA
BRANCH   7   9
ATOM      9  C10 ZIN AC000       1.764  -2.655  -5.628  0.00  0.00     0.015 A 
ATOM     10  C15 ZIN AC000       2.337  -3.374  -6.679  0.00  0.00     0.015 A 
ATOM     11  C14 ZIN AC000       1.657  -3.507  -7.871  0.00  0.00     0.001 A 
ATOM     12  C13 ZIN AC000       0.414  -2.919  -8.032  0.00  0.00     0.000 A 
ATOM     13  C12 ZIN AC000      -0.157  -2.200  -6.997  0.00  0.00     0.001 A 
ATOM     14  C11 ZIN AC000       0.509  -2.064  -5.797  0.00  0.00     0.015 A 
ENDBRANCH   7   9
ENDBRANCH   4   7
BRANCH   3  15
ATOM     15  O6  ZIN AC000       2.628   0.308  -4.460  0.00  0.00    -0.360 OA
ATOM     16  H26 ZIN AC000       3.579   0.450  -4.352  0.00  0.00     0.217 HD
ENDBRANCH   3  15
BRANCH   6  17
ATOM     17  S18 ZIN AC000       0.030  -2.165   0.222  0.00  0.00     0.140 S 
ATOM     18  O19 ZIN AC000       1.071  -2.380   1.216  0.00  0.00    -0.591 OA
ATOM     19  O20 ZIN AC000      -0.977  -1.221   0.682  0.00  0.00    -0.591 OA
ATOM     20  O21 ZIN AC000      -0.560  -3.415  -0.230  0.00  0.00    -0.591 OA
ENDBRANCH   6  17
BRANCH   1  21
ATOM     21  O2  ZIN AC000       0.386   0.733  -0.293  0.00  0.00    -0.354 OA
ATOM     22  C1  ZIN AC000       0.509   2.147  -0.458  0.00  0.00     0.210 C 
ENDBRANCH   1  21
TORSDOF 5
