REMARK  5 active torsions:
REMARK  status: ('A' for Active; 'I' for Inactive)
REMARK    1  A    between atoms: C2_2  and  C3_3 
REMARK    2  A    between atoms: C3_3  and  C4_4 
REMARK    3  A    between atoms: N9_8  and  C10_9 
REMARK    4  A    between atoms: C10_9  and  C12_10 
REMARK    5  A    between atoms: C10_9  and  C14_12 
REMARK       I    between atoms: C14_12  and  N15_13 
ROOT
ATOM      1  C4  ZIN AC000       0.763  -2.041   1.233  0.00  0.00     0.012 C 
ATOM      2  C6  ZIN AC000      -0.651  -2.615   1.482  0.00  0.00     0.109 C 
ATOM      3  C7  ZIN AC000      -0.409  -3.841   2.333  0.00  0.00     0.221 C 
ATOM      4  O8  ZIN AC000      -1.215  -4.730   2.516  0.00  0.00    -0.273 OA
ATOM      5  N9  ZIN AC000       0.828  -3.804   2.857  0.00  0.00    -0.338 N 
ATOM      6  C17 ZIN AC000       1.544  -2.590   2.447  0.00  0.00     0.132 C 
ENDROOT
BRANCH   5   7
ATOM      7  C10 ZIN AC000       1.390  -4.842   3.724  0.00  0.00     0.178 C 
BRANCH   7   8
ATOM      8  C12 ZIN AC000       0.529  -4.978   4.981  0.00  0.00     0.030 C 
ATOM      9  C13 ZIN AC000       0.606  -3.685   5.795  0.00  0.00     0.007 C 
ENDBRANCH   7   8
BRANCH   7  10
ATOM     10  C14 ZIN AC000       1.413  -6.156   2.986  0.00  0.00     0.238 C 
ATOM     11  N15 ZIN AC000       1.892  -7.261   3.591  0.00  0.00    -0.368 N 
ATOM     12  H32 ZIN AC000       2.222  -7.210   4.502  0.00  0.00     0.159 HD
ATOM     13  H33 ZIN AC000       1.906  -8.106   3.116  0.00  0.00     0.159 HD
ATOM     14  O16 ZIN AC000       1.000  -6.219   1.847  0.00  0.00    -0.271 OA
ENDBRANCH   7  10
ENDBRANCH   5   7
BRANCH   1  15
ATOM     15  C3  ZIN AC000       0.742  -0.511   1.242  0.00  0.00     0.006 C 
BRANCH  15  16
ATOM     16  C2  ZIN AC000       0.002  -0.004   0.002  0.00  0.00    -0.004 C 
ATOM     17  C1  ZIN AC000      -0.019   1.526   0.010  0.00  0.00     0.005 C 
ENDBRANCH  15  16
ENDBRANCH   1  15
TORSDOF 5
