REMARK  0 active torsions:
REMARK  status: ('A' for Active; 'I' for Inactive)
ROOT
ATOM      1  C1  <0> d          -0.018   1.503   0.010  0.00  0.00     0.092 C 
ATOM      2  C2  <0> d           0.002  -0.004   0.002  0.00  0.00     0.113 C 
ATOM      3  N3  <0> d           0.004  -0.582  -1.144  0.00  0.00    -0.147 NA
ATOM      4  S4  <0> d           0.020  -2.235  -1.266  0.00  0.00     0.287 S 
ATOM      5  O5  <0> d          -1.056  -2.590  -2.123  0.00  0.00    -0.198 OA
ATOM      6  O6  <0> d           1.369  -2.612  -1.508  0.00  0.00    -0.198 OA
ATOM      7  C7  <0> d          -0.393  -2.840   0.340  0.00  0.00     0.110 A 
ATOM      8  C8  <0> d          -0.747  -4.156   0.530  0.00  0.00     0.051 A 
ATOM      9  C9  <0> d          -1.068  -4.604   1.802  0.00  0.00     0.035 A 
ATOM     10 Cl10 <0> d          -1.515  -6.263   2.050  0.00  0.00    -0.084 Cl
ATOM     11  C11 <0> d          -1.032  -3.730   2.873  0.00  0.00     0.026 A 
ATOM     12  C12 <0> d          -0.676  -2.409   2.684  0.00  0.00     0.033 A 
ATOM     13  C13 <0> d          -0.352  -1.954   1.412  0.00  0.00     0.057 A 
ATOM     14  N14 <0> d           0.022  -0.627   1.206  0.00  0.00    -0.343 N 
ATOM     15  H21 <0> d           0.313  -0.115   1.976  0.00  0.00     0.167 HD
ENDROOT
TORSDOF 0
