REMARK  9 active torsions:
REMARK  status: ('A' for Active; 'I' for Inactive)
REMARK    1  A    between atoms: O2_2  and  C3_3 
REMARK    2  A    between atoms: C4_4  and  C5_5 
REMARK    3  A    between atoms: C5_5  and  C7_6 
REMARK    4  A    between atoms: C5_5  and  C13_12 
REMARK    5  A    between atoms: C13_12  and  O14_13 
REMARK    6  A    between atoms: C13_12  and  C15_14 
REMARK    7  A    between atoms: C13_12  and  C20_19 
REMARK    8  A    between atoms: C15_14  and  C16_15 
REMARK    9  A    between atoms: C16_15  and  N17_16 
ROOT
ATOM      1  C5  ZIN AC000       0.276  -2.684   0.173  0.00  0.00     0.095 C 
ENDROOT
BRANCH   1   2
ATOM      2  C4  ZIN AC000      -0.996  -1.878   0.233  0.00  0.00     0.007 A 
ATOM      3  C3  ZIN AC000      -0.942  -0.498   0.463  0.00  0.00     0.171 A 
ATOM      4  N38 ZIN AC000      -2.033   0.234   0.526  0.00  0.00    -0.224 NA
ATOM      5  C37 ZIN AC000      -3.244  -0.310   0.362  0.00  0.00     0.070 A 
ATOM      6  C31 ZIN AC000      -3.367  -1.702   0.127  0.00  0.00    -0.005 A 
ATOM      7  C36 ZIN AC000      -4.406   0.478   0.426  0.00  0.00     0.034 A 
ATOM      8  C30 ZIN AC000      -2.202  -2.491   0.063  0.00  0.00     0.026 A 
ATOM      9  C32 ZIN AC000      -4.641  -2.267  -0.039  0.00  0.00     0.032 A 
ATOM     10  C33 ZIN AC000      -5.745  -1.472   0.030  0.00  0.00     0.011 A 
ATOM     11 Br34 ZIN AC000      -7.461  -2.235  -0.193  0.00  0.00    -0.051 Br
ATOM     12  C35 ZIN AC000      -5.626  -0.103   0.262  0.00  0.00     0.021 A 
BRANCH   3  13
ATOM     13  O2  ZIN AC000       0.265   0.098   0.629  0.00  0.00    -0.339 OA
ATOM     14  C1  ZIN AC000       0.265   1.507   0.867  0.00  0.00     0.211 C 
ENDBRANCH   3  13
ENDBRANCH   1   2
BRANCH   1  15
ATOM     15  C7  ZIN AC000       0.343  -3.605   1.364  0.00  0.00    -0.046 A 
ATOM     16  C12 ZIN AC000      -0.697  -4.479   1.621  0.00  0.00     0.008 A 
ATOM     17  C11 ZIN AC000      -0.633  -5.328   2.710  0.00  0.00     0.001 A 
ATOM     18  C10 ZIN AC000       0.465  -5.295   3.548  0.00  0.00     0.000 A 
ATOM     19  C9  ZIN AC000       1.503  -4.417   3.295  0.00  0.00     0.001 A 
ATOM     20  C8  ZIN AC000       1.441  -3.572   2.202  0.00  0.00     0.008 A 
ENDBRANCH   1  15
BRANCH   1  21
ATOM     21  C13 ZIN AC000       0.295  -3.511  -1.114  0.00  0.00     0.099 C 
BRANCH  21  22
ATOM     22  O14 ZIN AC000      -0.748  -4.487  -1.069  0.00  0.00    -0.384 OA
ATOM     23  H47 ZIN AC000      -0.621  -5.168  -0.394  0.00  0.00     0.211 HD
ENDBRANCH  21  22
BRANCH  21  24
ATOM     24  C15 ZIN AC000       0.080  -2.590  -2.316  0.00  0.00     0.074 C 
BRANCH  24  25
ATOM     25  C16 ZIN AC000       0.158  -3.408  -3.606  0.00  0.00     0.274 C 
BRANCH  25  26
ATOM     26  N17 ZIN AC000       0.074  -2.507  -4.763  0.00  0.00     0.080 N 
ATOM     27  C18 ZIN AC000       0.382  -3.221  -6.010  0.00  0.00     0.309 C 
ATOM     28  C19 ZIN AC000      -1.245  -1.865  -4.836  0.00  0.00     0.309 C 
ENDBRANCH  25  26
ENDBRANCH  24  25
ENDBRANCH  21  24
BRANCH  21  29
ATOM     29  C20 ZIN AC000       1.627  -4.205  -1.245  0.00  0.00    -0.012 A 
ATOM     30  C29 ZIN AC000       1.688  -5.564  -1.291  0.00  0.00     0.011 A 
ATOM     31  C28 ZIN AC000       2.910  -6.223  -1.417  0.00  0.00     0.002 A 
ATOM     32  C27 ZIN AC000       4.078  -5.527  -1.488  0.00  0.00     0.012 A 
ATOM     33  C26 ZIN AC000       4.054  -4.123  -1.437  0.00  0.00    -0.025 A 
ATOM     34  C21 ZIN AC000       2.811  -3.453  -1.313  0.00  0.00    -0.017 A 
ATOM     35  C25 ZIN AC000       5.239  -3.370  -1.506  0.00  0.00     0.012 A 
ATOM     36  C22 ZIN AC000       2.788  -2.048  -1.262  0.00  0.00     0.013 A 
ATOM     37  C23 ZIN AC000       3.956  -1.353  -1.331  0.00  0.00     0.001 A 
ATOM     38  C24 ZIN AC000       5.178  -2.012  -1.453  0.00  0.00     0.001 A 
ENDBRANCH  21  29
ENDBRANCH   1  21
TORSDOF 9
