REMARK  9 active torsions:
REMARK  status: ('A' for Active; 'I' for Inactive)
REMARK    1  A    between atoms: N1_1  and  C5_5 
REMARK    2  A    between atoms: C5_5  and  C6_6 
REMARK    3  A    between atoms: C6_6  and  C7_7 
REMARK    4  A    between atoms: C7_7  and  C8_8 
REMARK    5  A    between atoms: C8_8  and  O9_9 
REMARK    6  A    between atoms: C8_8  and  P10_10 
REMARK    7  A    between atoms: C8_8  and  P14_14 
REMARK    8  A    between atoms: P10_10  and  O13_13 
REMARK    9  A    between atoms: P14_14  and  O17_17 
ROOT
ATOM      1  C8  ZIN AC000      -4.286   0.913   2.497  0.00  0.00     0.268 C 
ENDROOT
BRANCH   1   2
ATOM      2  C7  ZIN AC000      -2.851   1.442   2.486  0.00  0.00     0.067 C 
BRANCH   2   3
ATOM      3  C6  ZIN AC000      -2.135   0.949   1.227  0.00  0.00     0.031 C 
BRANCH   3   4
ATOM      4  C5  ZIN AC000      -0.699   1.479   1.216  0.00  0.00     0.230 C 
BRANCH   4   5
ATOM      5  N1  ZIN AC000      -0.012   1.005   0.008  0.00  0.00    -0.079 N 
ATOM      6  H2  ZIN AC000       0.002  -0.004   0.002  0.00  0.00     0.274 HD
ATOM      7  H3  ZIN AC000       0.935   1.354   0.000  0.00  0.00     0.274 HD
ATOM      8  H4  ZIN AC000      -0.500   1.339  -0.810  0.00  0.00     0.274 HD
ENDBRANCH   4   5
ENDBRANCH   3   4
ENDBRANCH   2   3
ENDBRANCH   1   2
BRANCH   1   9
ATOM      9  O9  ZIN AC000      -4.267  -0.516   2.489  0.00  0.00    -0.366 OA
ATOM     10  H24 ZIN AC000      -3.812  -0.907   3.248  0.00  0.00     0.212 HD
ENDBRANCH   1   9
BRANCH   1  11
ATOM     11  P10 ZIN AC000      -5.139   1.501   3.997  0.00  0.00     0.296 P 
ATOM     12  O11 ZIN AC000      -6.589   0.966   4.008  0.00  0.00    -0.644 OA
ATOM     13  O12 ZIN AC000      -4.392   0.989   5.248  0.00  0.00    -0.644 OA
BRANCH  11  14
ATOM     14  O13 ZIN AC000      -5.161   3.111   4.005  0.00  0.00    -0.320 OA
ATOM     15  H25 ZIN AC000      -5.601   3.494   4.777  0.00  0.00     0.221 HD
ENDBRANCH  11  14
ENDBRANCH   1  11
BRANCH   1  16
ATOM     16  P14 ZIN AC000      -5.168   1.517   1.020  0.00  0.00     0.296 P 
ATOM     17  O15 ZIN AC000      -6.617   0.982   1.031  0.00  0.00    -0.644 OA
ATOM     18  O16 ZIN AC000      -4.445   1.018  -0.251  0.00  0.00    -0.644 OA
BRANCH  16  19
ATOM     19  O17 ZIN AC000      -5.190   3.127   1.029  0.00  0.00    -0.320 OA
ATOM     20  H26 ZIN AC000      -5.644   3.518   0.270  0.00  0.00     0.221 HD
ENDBRANCH  16  19
ENDBRANCH   1  16
TORSDOF 9
