REMARK  23 active torsions:
REMARK  status: ('A' for Active; 'I' for Inactive)
REMARK    1  A    between atoms: C2_2  and  C4_4 
REMARK    2  A    between atoms: C4_4  and  N5_5 
REMARK    3  A    between atoms: N5_5  and  C6_6 
REMARK    4  A    between atoms: N5_5  and  C49_48 
REMARK    5  A    between atoms: C6_6  and  C7_7 
REMARK    6  A    between atoms: C7_7  and  N8_8 
REMARK    7  A    between atoms: N8_8  and  C9_9 
REMARK    8  A    between atoms: N8_8  and  C13_13 
REMARK    9  A    between atoms: C9_9  and  C10_10 
REMARK   10  A    between atoms: C13_13  and  C14_14 
REMARK   11  A    between atoms: C14_14  and  C16_15 
REMARK   12  A    between atoms: C14_14  and  N40_39 
REMARK   13  A    between atoms: C16_15  and  O17_16 
REMARK   14  A    between atoms: O17_16  and  P18_17 
REMARK   15  A    between atoms: P18_17  and  O21_20 
REMARK   16  A    between atoms: O21_20  and  C22_21 
REMARK   17  A    between atoms: C25_24  and  C26_25 
REMARK   18  A    between atoms: C25_24  and  C32_31 
REMARK   19  A    between atoms: N40_39  and  C41_40 
REMARK   20  A    between atoms: N40_39  and  C45_44 
REMARK   21  A    between atoms: C41_40  and  C42_41 
REMARK   22  A    between atoms: C45_44  and  C46_45 
REMARK   23  A    between atoms: C49_48  and  C50_49 
ROOT
ATOM      1  C14 ZIN AC000      -5.831  -0.443   2.214  0.00  0.00     0.276 C 
ENDROOT
BRANCH   1   2
ATOM      2  C13 ZIN AC000      -4.645  -0.551   1.252  0.00  0.00     0.311 C 
BRANCH   2   3
ATOM      3  N8  ZIN AC000      -4.121   0.791   0.968  0.00  0.00     0.102 N 
BRANCH   3   4
ATOM      4  C7  ZIN AC000      -3.462   1.361   2.151  0.00  0.00     0.303 C 
BRANCH   4   5
ATOM      5  C6  ZIN AC000      -3.244   2.860   1.941  0.00  0.00     0.304 C 
BRANCH   5   6
ATOM      6  N5  ZIN AC000      -2.491   3.409   3.077  0.00  0.00     0.110 N 
BRANCH   6   7
ATOM      7  C4  ZIN AC000      -3.351   3.554   4.258  0.00  0.00     0.385 C 
BRANCH   7   8
ATOM      8  C2  ZIN AC000      -2.503   3.882   5.460  0.00  0.00     0.202 C 
ATOM      9  O1  ZIN AC000      -1.294   3.986   5.343  0.00  0.00    -0.647 OA
ATOM     10  O3  ZIN AC000      -3.027   4.049   6.549  0.00  0.00    -0.647 OA
ENDBRANCH   7   8
ENDBRANCH   6   7
BRANCH   6  11
ATOM     11  C49 ZIN AC000      -1.863   4.689   2.723  0.00  0.00     0.385 C 
BRANCH  11  12
ATOM     12  C50 ZIN AC000      -0.701   4.440   1.796  0.00  0.00     0.202 C 
ATOM     13  O51 ZIN AC000      -0.433   3.303   1.447  0.00  0.00    -0.647 OA
ATOM     14  O52 ZIN AC000      -0.029   5.375   1.395  0.00  0.00    -0.647 OA
ENDBRANCH  11  12
ENDBRANCH   6  11
ENDBRANCH   5   6
ENDBRANCH   4   5
ENDBRANCH   3   4
BRANCH   3  15
ATOM     15  C9  ZIN AC000      -3.208   0.767  -0.183  0.00  0.00     0.385 C 
BRANCH  15  16
ATOM     16  C10 ZIN AC000      -4.004   0.597  -1.451  0.00  0.00     0.202 C 
ATOM     17  O11 ZIN AC000      -5.223   0.622  -1.415  0.00  0.00    -0.647 OA
ATOM     18  O12 ZIN AC000      -3.429   0.432  -2.514  0.00  0.00    -0.647 OA
ENDBRANCH  15  16
ENDBRANCH   3  15
ENDBRANCH   2   3
ENDBRANCH   1   2
BRANCH   1  19
ATOM     19  C16 ZIN AC000      -6.300  -1.845   2.605  0.00  0.00     0.219 C 
BRANCH  19  20
ATOM     20  O17 ZIN AC000      -7.349  -1.744   3.570  0.00  0.00    -0.288 OA
BRANCH  20  21
ATOM     21  P18 ZIN AC000      -7.978  -3.024   4.319  0.00  0.00     0.408 P 
ATOM     22  O19 ZIN AC000      -6.849  -3.824   5.007  0.00  0.00    -0.624 OA
ATOM     23  O20 ZIN AC000      -8.692  -3.924   3.287  0.00  0.00    -0.624 OA
BRANCH  21  24
ATOM     24  O21 ZIN AC000      -9.038  -2.530   5.426  0.00  0.00    -0.284 OA
BRANCH  24  25
ATOM     25  C22 ZIN AC000      -9.691  -3.423   6.330  0.00  0.00     0.134 C 
ATOM     26  C39 ZIN AC000     -11.205  -3.339   6.127  0.00  0.00     0.034 C 
ATOM     27  C38 ZIN AC000     -11.904  -4.295   7.095  0.00  0.00     0.022 C 
ATOM     28  C25 ZIN AC000     -11.560  -3.905   8.534  0.00  0.00     0.014 C 
ATOM     29  C24 ZIN AC000     -10.046  -3.989   8.738  0.00  0.00     0.022 C 
ATOM     30  C23 ZIN AC000      -9.347  -3.033   7.769  0.00  0.00     0.034 C 
BRANCH  28  31
ATOM     31  C26 ZIN AC000     -12.248  -4.846   9.488  0.00  0.00    -0.045 A 
ATOM     32  C31 ZIN AC000     -13.629  -4.869   9.561  0.00  0.00     0.008 A 
ATOM     33  C30 ZIN AC000     -14.260  -5.736  10.434  0.00  0.00     0.001 A 
ATOM     34  C29 ZIN AC000     -13.511  -6.574  11.239  0.00  0.00     0.000 A 
ATOM     35  C28 ZIN AC000     -12.131  -6.547  11.170  0.00  0.00     0.001 A 
ATOM     36  C27 ZIN AC000     -11.500  -5.683  10.294  0.00  0.00     0.008 A 
ENDBRANCH  28  31
BRANCH  28  37
ATOM     37  C32 ZIN AC000     -12.024  -2.495   8.797  0.00  0.00    -0.045 A 
ATOM     38  C37 ZIN AC000     -11.571  -1.814   9.911  0.00  0.00     0.008 A 
ATOM     39  C36 ZIN AC000     -11.993  -0.520  10.149  0.00  0.00     0.001 A 
ATOM     40  C35 ZIN AC000     -12.877   0.090   9.278  0.00  0.00     0.000 A 
ATOM     41  C34 ZIN AC000     -13.335  -0.593   8.167  0.00  0.00     0.001 A 
ATOM     42  C33 ZIN AC000     -12.909  -1.885   7.926  0.00  0.00     0.008 A 
ENDBRANCH  28  37
ENDBRANCH  24  25
ENDBRANCH  21  24
ENDBRANCH  20  21
ENDBRANCH  19  20
ENDBRANCH   1  19
BRANCH   1  43
ATOM     43  N40 ZIN AC000      -6.930   0.276   1.556  0.00  0.00     0.117 N 
BRANCH  43  44
ATOM     44  C41 ZIN AC000      -6.619   1.705   1.421  0.00  0.00     0.386 C 
BRANCH  44  45
ATOM     45  C42 ZIN AC000      -6.652   2.357   2.780  0.00  0.00     0.202 C 
ATOM     46  O43 ZIN AC000      -7.008   1.717   3.755  0.00  0.00    -0.647 OA
ATOM     47  O44 ZIN AC000      -6.323   3.525   2.904  0.00  0.00    -0.647 OA
ENDBRANCH  44  45
ENDBRANCH  43  44
BRANCH  43  48
ATOM     48  C45 ZIN AC000      -7.242  -0.320   0.251  0.00  0.00     0.386 C 
BRANCH  48  49
ATOM     49  C46 ZIN AC000      -8.197  -1.472   0.439  0.00  0.00     0.202 C 
ATOM     50  O47 ZIN AC000      -8.677  -1.691   1.538  0.00  0.00    -0.647 OA
ATOM     51  O48 ZIN AC000      -8.488  -2.183  -0.507  0.00  0.00    -0.647 OA
ENDBRANCH  48  49
ENDBRANCH  43  48
ENDBRANCH   1  43
TORSDOF 23
