REMARK  8 active torsions:
REMARK  status: ('A' for Active; 'I' for Inactive)
REMARK    1  A    between atoms: C2_2  and  C3_3 
REMARK    2  A    between atoms: C3_3  and  C4_4 
REMARK    3  A    between atoms: C4_4  and  N5_5 
REMARK    4  A    between atoms: C7_7  and  O9_8 
REMARK    5  A    between atoms: C10_9  and  O12_10 
REMARK    6  A    between atoms: C13_11  and  O15_12 
REMARK    7  A    between atoms: C16_13  and  C18_14 
REMARK    8  A    between atoms: C18_14  and  O19_15 
ROOT
ATOM      1  N5  ZIN AC000       1.473  -2.527   2.423  0.00  0.00     0.100 N 
ATOM      2  C6  ZIN AC000       2.724  -1.786   2.630  0.00  0.00     0.307 C 
ATOM      3  C7  ZIN AC000       3.362  -2.217   3.952  0.00  0.00     0.177 C 
ATOM      4  C10 ZIN AC000       3.640  -3.722   3.912  0.00  0.00     0.179 C 
ATOM      5  C13 ZIN AC000       2.330  -4.468   3.648  0.00  0.00     0.184 C 
ATOM      6  C16 ZIN AC000       1.721  -3.972   2.334  0.00  0.00     0.277 C 
ENDROOT
BRANCH   1   7
ATOM      7  C4  ZIN AC000       0.763  -2.041   1.233  0.00  0.00     0.273 C 
BRANCH   7   8
ATOM      8  C3  ZIN AC000       0.742  -0.511   1.242  0.00  0.00     0.030 C 
BRANCH   8   9
ATOM      9  C2  ZIN AC000       0.002  -0.004   0.002  0.00  0.00    -0.003 C 
ATOM     10  C1  ZIN AC000      -0.019   1.526   0.010  0.00  0.00     0.005 C 
ENDBRANCH   8   9
ENDBRANCH   7   8
ENDBRANCH   1   7
BRANCH   6  11
ATOM     11  C18 ZIN AC000       0.401  -4.701   2.076  0.00  0.00     0.202 C 
BRANCH  11  12
ATOM     12  O19 ZIN AC000      -0.463  -4.535   3.203  0.00  0.00    -0.399 OA
ATOM     13  H36 ZIN AC000      -1.320  -4.972   3.108  0.00  0.00     0.209 HD
ENDBRANCH  11  12
ENDBRANCH   6  11
BRANCH   5  14
ATOM     14  O15 ZIN AC000       2.590  -5.870   3.554  0.00  0.00    -0.391 OA
ATOM     15  H33 ZIN AC000       2.979  -6.253   4.352  0.00  0.00     0.210 HD
ENDBRANCH   5  14
BRANCH   3  16
ATOM     16  O9  ZIN AC000       4.589  -1.509   4.143  0.00  0.00    -0.391 OA
ATOM     17  H31 ZIN AC000       4.487  -0.548   4.176  0.00  0.00     0.210 HD
ENDBRANCH   3  16
BRANCH   4  18
ATOM     18  O12 ZIN AC000       4.185  -4.141   5.165  0.00  0.00    -0.390 OA
ATOM     19  H32 ZIN AC000       5.016  -3.703   5.398  0.00  0.00     0.210 HD
ENDBRANCH   4  18
TORSDOF 8
