REMARK  6 active torsions:
REMARK  status: ('A' for Active; 'I' for Inactive)
REMARK    1  A    between atoms: C2_2  and  O4_4 
REMARK    2  A    between atoms: O4_4  and  C5_5 
REMARK    3  A    between atoms: N11_11  and  C12_12 
REMARK    4  A    between atoms: C12_12  and  C14_13 
REMARK    5  A    between atoms: C12_12  and  C19_18 
REMARK    6  A    between atoms: C14_13  and  C16_15 
ROOT
ATOM      1  C5  ZIN AC000      -1.062  -2.047   0.001  0.00  0.00     0.121 A 
ATOM      2  C6  ZIN AC000      -2.099  -2.887   0.001  0.00  0.00     0.055 A 
ATOM      3  C7  ZIN AC000      -1.775  -4.240  -0.008  0.00  0.00    -0.014 A 
ATOM      4  C8  ZIN AC000      -0.449  -4.479  -0.015  0.00  0.00    -0.005 A 
ATOM      5  C9  ZIN AC000       0.160  -5.865  -0.025  0.00  0.00     0.077 C 
ATOM      6  C10 ZIN AC000      -0.933  -6.868   0.365  0.00  0.00     0.279 C 
ATOM      7  N11 ZIN AC000      -2.135  -6.604  -0.438  0.00  0.00     0.109 N 
ATOM      8  C26 ZIN AC000      -2.800  -5.366  -0.012  0.00  0.00     0.313 C 
ATOM      9  S27 ZIN AC000       0.438  -2.964  -0.019  0.00  0.00    -0.069 SA
ENDROOT
BRANCH   7  10
ATOM     10  C12 ZIN AC000      -3.062  -7.743  -0.388  0.00  0.00     0.328 C 
BRANCH  10  11
ATOM     11  C14 ZIN AC000      -4.280  -7.437  -1.221  0.00  0.00     0.169 C 
ATOM     12  O15 ZIN AC000      -4.231  -6.578  -2.068  0.00  0.00    -0.295 OA
BRANCH  11  13
ATOM     13  C16 ZIN AC000      -5.559  -8.202  -0.996  0.00  0.00     0.058 A 
ATOM     14  C18 ZIN AC000      -6.483  -8.402  -2.199  0.00  0.00     0.013 A 
ATOM     15  C17 ZIN AC000      -6.873  -7.425  -1.088  0.00  0.00     0.013 A 
ENDBRANCH  11  13
ENDBRANCH  10  11
BRANCH  10  16
ATOM     16  C19 ZIN AC000      -2.378  -8.972  -0.931  0.00  0.00     0.021 A 
ATOM     17  C24 ZIN AC000      -2.865 -10.230  -0.619  0.00  0.00     0.125 A 
ATOM     18  C23 ZIN AC000      -2.240 -11.357  -1.124  0.00  0.00     0.043 A 
ATOM     19  F25 ZIN AC000      -3.957 -10.357   0.167  0.00  0.00    -0.205 F 
ATOM     20  C22 ZIN AC000      -1.123 -11.226  -1.928  0.00  0.00     0.003 A 
ATOM     21  C21 ZIN AC000      -0.634  -9.970  -2.233  0.00  0.00     0.001 A 
ATOM     22  C20 ZIN AC000      -1.262  -8.843  -1.735  0.00  0.00     0.013 A 
ENDBRANCH  10  16
ENDBRANCH   7  10
BRANCH   1  23
ATOM     23  O4  ZIN AC000      -1.151  -0.691   0.009  0.00  0.00    -0.272 OA
BRANCH  23  24
ATOM     24  C2  ZIN AC000       0.002  -0.004   0.002  0.00  0.00     0.260 C 
ATOM     25  C1  ZIN AC000      -0.018   1.503   0.010  0.00  0.00     0.126 C 
ATOM     26  O3  ZIN AC000       1.060  -0.596  -0.011  0.00  0.00    -0.265 OA
ENDBRANCH  23  24
ENDBRANCH   1  23
TORSDOF 6
