REMARK  14 active torsions:
REMARK  status: ('A' for Active; 'I' for Inactive)
REMARK    1  A    between atoms: C2_2  and  N5_5 
REMARK       I    between atoms: N5_5  and  C6_6 
REMARK    2  A    between atoms: C6_6  and  C8_8 
REMARK    3  A    between atoms: N20_17  and  C21_18 
REMARK    4  A    between atoms: C21_18  and  C22_19 
REMARK    5  A    between atoms: C22_19  and  O24_20 
REMARK    6  A    between atoms: C22_19  and  C25_21 
REMARK    7  A    between atoms: C25_21  and  C27_22 
REMARK    8  A    between atoms: C25_21  and  N34_29 
REMARK    9  A    between atoms: C27_22  and  C28_23 
REMARK       I    between atoms: N34_29  and  C35_30 
REMARK   10  A    between atoms: C35_30  and  C37_32 
REMARK   11  A    between atoms: C37_32  and  C39_33 
REMARK   12  A    between atoms: C37_32  and  N43_37 
REMARK   13  A    between atoms: C39_33  and  C40_34 
REMARK       I    between atoms: C40_34  and  N41_35 
REMARK       I    between atoms: N43_37  and  C44_38 
REMARK   14  A    between atoms: C44_38  and  C46_40 
ROOT
ATOM      1  C25 ZIN AC000       4.733   3.966  -3.463  0.00  0.00     0.119 C 
ENDROOT
BRANCH   1   2
ATOM      2  C22 ZIN AC000       5.349   2.604  -3.790  0.00  0.00     0.169 C 
BRANCH   2   3
ATOM      3  C21 ZIN AC000       4.238   1.615  -4.149  0.00  0.00     0.307 C 
BRANCH   3   4
ATOM      4  N20 ZIN AC000       4.811   0.271  -4.306  0.00  0.00     0.105 N 
ATOM      5  C8  ZIN AC000       3.771  -0.755  -4.159  0.00  0.00     0.314 C 
ATOM      6  C10 ZIN AC000       4.413  -2.144  -4.197  0.00  0.00     0.050 C 
ATOM      7  C11 ZIN AC000       5.147  -2.323  -5.530  0.00  0.00    -0.006 C 
ATOM      8  C17 ZIN AC000       6.194  -1.216  -5.672  0.00  0.00     0.018 C 
ATOM      9  C13 ZIN AC000       4.135  -2.233  -6.675  0.00  0.00     0.005 C 
ATOM     10  C16 ZIN AC000       6.905  -1.347  -7.019  0.00  0.00     0.007 C 
ATOM     11  C19 ZIN AC000       5.488   0.139  -5.589  0.00  0.00     0.278 C 
ATOM     12  C15 ZIN AC000       5.889  -1.256  -8.160  0.00  0.00     0.000 C 
ATOM     13  C14 ZIN AC000       4.861  -2.379  -8.014  0.00  0.00     0.000 C 
BRANCH   5  14
ATOM     14  C6  ZIN AC000       3.062  -0.566  -2.843  0.00  0.00     0.252 C 
ATOM     15  N5  ZIN AC000       1.839  -1.101  -2.654  0.00  0.00    -0.351 N 
ATOM     16  H65 ZIN AC000       1.416  -1.607  -3.365  0.00  0.00     0.163 HD
ATOM     17  O7  ZIN AC000       3.591   0.067  -1.954  0.00  0.00    -0.271 OA
BRANCH  15  18
ATOM     18  C2  ZIN AC000       1.149  -0.917  -1.375  0.00  0.00     0.022 C 
ATOM     19  C1  ZIN AC000       0.943   0.577  -1.117  0.00  0.00     0.037 C 
ATOM     20  C3  ZIN AC000       1.993  -1.518  -0.249  0.00  0.00     0.037 C 
ATOM     21  C4  ZIN AC000      -0.210  -1.618  -1.423  0.00  0.00     0.037 C 
ENDBRANCH  15  18
ENDBRANCH   5  14
ENDBRANCH   3   4
ENDBRANCH   2   3
BRANCH   2  22
ATOM     22  O24 ZIN AC000       6.243   2.739  -4.896  0.00  0.00    -0.392 OA
ATOM     23  H80 ZIN AC000       5.822   3.063  -5.705  0.00  0.00     0.210 HD
ENDBRANCH   2  22
ENDBRANCH   1   2
BRANCH   1  24
ATOM     24  C27 ZIN AC000       4.069   4.540  -4.716  0.00  0.00     0.066 C 
BRANCH  24  25
ATOM     25  C28 ZIN AC000       3.358   5.821  -4.366  0.00  0.00    -0.056 A 
ATOM     26  C33 ZIN AC000       4.027   7.028  -4.449  0.00  0.00     0.007 A 
ATOM     27  C32 ZIN AC000       3.373   8.204  -4.132  0.00  0.00     0.001 A 
ATOM     28  C31 ZIN AC000       2.053   8.172  -3.723  0.00  0.00     0.000 A 
ATOM     29  C30 ZIN AC000       1.385   6.965  -3.636  0.00  0.00     0.001 A 
ATOM     30  C29 ZIN AC000       2.038   5.789  -3.957  0.00  0.00     0.007 A 
ENDBRANCH  24  25
ENDBRANCH   1  24
BRANCH   1  31
ATOM     31  N34 ZIN AC000       5.782   4.879  -3.004  0.00  0.00    -0.352 N 
ATOM     32  C35 ZIN AC000       5.469   5.918  -2.205  0.00  0.00     0.241 C 
ATOM     33  O36 ZIN AC000       4.319   6.098  -1.866  0.00  0.00    -0.271 OA
ATOM     34  H88 ZIN AC000       6.703   4.735  -3.275  0.00  0.00     0.163 HD
BRANCH  32  35
ATOM     35  C37 ZIN AC000       6.549   6.858  -1.733  0.00  0.00     0.185 C 
BRANCH  35  36
ATOM     36  C39 ZIN AC000       7.591   6.075  -0.931  0.00  0.00     0.137 C 
BRANCH  36  37
ATOM     37  C40 ZIN AC000       6.941   5.483   0.293  0.00  0.00     0.217 C 
ATOM     38  N41 ZIN AC000       7.687   4.821   1.199  0.00  0.00    -0.370 N 
ATOM     39  H91 ZIN AC000       8.643   4.724   1.063  0.00  0.00     0.159 HD
ATOM     40  H92 ZIN AC000       7.269   4.440   1.987  0.00  0.00     0.159 HD
ATOM     41  O42 ZIN AC000       5.746   5.604   0.464  0.00  0.00    -0.274 OA
ENDBRANCH  36  37
ENDBRANCH  35  36
BRANCH  35  42
ATOM     42  N43 ZIN AC000       5.957   7.895  -0.885  0.00  0.00    -0.342 N 
ATOM     43  C44 ZIN AC000       6.610   9.057  -0.686  0.00  0.00     0.271 C 
ATOM     44  O45 ZIN AC000       7.645   9.282  -1.282  0.00  0.00    -0.266 OA
ATOM     45  H93 ZIN AC000       5.095   7.746  -0.466  0.00  0.00     0.163 HD
BRANCH  43  46
ATOM     46  C46 ZIN AC000       6.066  10.061   0.259  0.00  0.00     0.125 A 
ATOM     47  N55 ZIN AC000       4.942   9.802   0.898  0.00  0.00    -0.243 NA
ATOM     48  C54 ZIN AC000       4.419  10.673   1.760  0.00  0.00     0.068 A 
ATOM     49  C49 ZIN AC000       5.068  11.913   1.998  0.00  0.00    -0.007 A 
ATOM     50  C53 ZIN AC000       3.220  10.387   2.443  0.00  0.00     0.032 A 
ATOM     51  C48 ZIN AC000       6.265  12.201   1.317  0.00  0.00     0.016 A 
ATOM     52  C50 ZIN AC000       4.506  12.827   2.904  0.00  0.00     0.014 A 
ATOM     53  C47 ZIN AC000       6.756  11.267   0.450  0.00  0.00     0.038 A 
ATOM     54  C51 ZIN AC000       3.346  12.514   3.543  0.00  0.00     0.001 A 
ATOM     55  C52 ZIN AC000       2.706  11.297   3.313  0.00  0.00     0.002 A 
ENDBRANCH  43  46
ENDBRANCH  35  42
ENDBRANCH  32  35
ENDBRANCH   1  31
TORSDOF 14
