REMARK  13 active torsions:
REMARK  status: ('A' for Active; 'I' for Inactive)
REMARK    1  A    between atoms: C2_2  and  C3_3 
REMARK    2  A    between atoms: C3_3  and  C5_4 
REMARK    3  A    between atoms: C3_3  and  N9_7 
REMARK    4  A    between atoms: C5_4  and  O8_6 
REMARK    5  A    between atoms: N12_10  and  C13_11 
REMARK    6  A    between atoms: C16_14  and  N17_15 
REMARK    7  A    between atoms: N20_18  and  C21_19 
REMARK    8  A    between atoms: C24_22  and  O25_23 
REMARK    9  A    between atoms: O25_23  and  C26_24 
REMARK   10  A    between atoms: C26_24  and  C27_25 
REMARK   11  A    between atoms: C31_28  and  C32_29 
REMARK   12  A    between atoms: C31_28  and  C38_35 
REMARK   13  A    between atoms: C32_29  and  N33_30 
ROOT
ATOM      1  C21 ZIN AC000      -9.976   6.182   7.200  0.00  0.00     0.010 A 
ATOM      2  C22 ZIN AC000     -10.891   6.839   6.389  0.00  0.00     0.026 A 
ATOM      3  C23 ZIN AC000     -11.947   7.527   6.955  0.00  0.00     0.038 A 
ATOM      4  C24 ZIN AC000     -12.092   7.561   8.334  0.00  0.00     0.068 A 
ATOM      5  C47 ZIN AC000     -11.179   6.905   9.146  0.00  0.00     0.038 A 
ATOM      6  C48 ZIN AC000     -10.126   6.212   8.581  0.00  0.00     0.026 A 
ENDROOT
BRANCH   1   7
ATOM      7  N20 ZIN AC000      -8.907   5.484   6.627  0.00  0.00    -0.281 NA
ATOM      8  C19 ZIN AC000      -8.939   5.583   5.161  0.00  0.00     0.110 C 
ATOM      9  C18 ZIN AC000      -7.713   4.876   4.578  0.00  0.00     0.110 C 
ATOM     10  N17 ZIN AC000      -7.709   3.471   5.009  0.00  0.00    -0.281 NA
ATOM     11  C50 ZIN AC000      -7.676   3.373   6.475  0.00  0.00     0.110 C 
ATOM     12  C49 ZIN AC000      -8.903   4.080   7.058  0.00  0.00     0.110 C 
BRANCH  10  13
ATOM     13  C16 ZIN AC000      -6.640   2.774   4.436  0.00  0.00     0.010 A 
ATOM     14  C15 ZIN AC000      -6.491   2.744   3.056  0.00  0.00     0.026 A 
ATOM     15  C14 ZIN AC000      -5.436   2.056   2.491  0.00  0.00     0.032 A 
ATOM     16  C13 ZIN AC000      -4.525   1.394   3.302  0.00  0.00     0.045 A 
ATOM     17  C52 ZIN AC000      -4.677   1.419   4.682  0.00  0.00     0.032 A 
ATOM     18  C51 ZIN AC000      -5.729   2.112   5.248  0.00  0.00     0.026 A 
BRANCH  16  19
ATOM     19  N12 ZIN AC000      -3.453   0.693   2.728  0.00  0.00    -0.256 N 
ATOM     20  C11 ZIN AC000      -2.487  -0.005   3.413  0.00  0.00     0.242 A 
ATOM     21  N10 ZIN AC000      -1.661  -0.522   2.561  0.00  0.00    -0.162 NA
ATOM     22  N9  ZIN AC000      -2.082  -0.162   1.273  0.00  0.00    -0.211 N 
ATOM     23  C53 ZIN AC000      -3.190   0.595   1.409  0.00  0.00     0.351 A 
ATOM     24  O54 ZIN AC000      -3.839   1.093   0.505  0.00  0.00    -0.244 OA
BRANCH  22  25
ATOM     25  C3  ZIN AC000      -1.433  -0.534   0.013  0.00  0.00     0.143 C 
BRANCH  25  26
ATOM     26  C2  ZIN AC000       0.002  -0.004   0.002  0.00  0.00     0.025 C 
ATOM     27  C1  ZIN AC000      -0.019   1.526   0.010  0.00  0.00     0.007 C 
ENDBRANCH  25  26
BRANCH  25  28
ATOM     28  C5  ZIN AC000      -1.416  -2.058  -0.121  0.00  0.00     0.139 C 
ATOM     29  C7  ZIN AC000      -2.851  -2.587  -0.110  0.00  0.00     0.041 C 
BRANCH  28  30
ATOM     30  O8  ZIN AC000      -0.691  -2.624   0.973  0.00  0.00    -0.394 OA
ATOM     31  H63 ZIN AC000      -1.064  -2.418   1.840  0.00  0.00     0.210 HD
ENDBRANCH  28  30
ENDBRANCH  25  28
ENDBRANCH  22  25
ENDBRANCH  16  19
ENDBRANCH  10  13
ENDBRANCH   1   7
BRANCH   4  32
ATOM     32  O25 ZIN AC000     -13.131   8.239   8.891  0.00  0.00    -0.351 OA
BRANCH  32  33
ATOM     33  C26 ZIN AC000     -13.220   8.233  10.318  0.00  0.00     0.182 C 
BRANCH  33  34
ATOM     34  C27 ZIN AC000     -14.443   9.041  10.756  0.00  0.00     0.037 C 
ATOM     35  C46 ZIN AC000     -14.601   9.013  12.296  0.00  0.00     0.054 C 
ATOM     36  C31 ZIN AC000     -15.005  10.455  12.660  0.00  0.00     0.109 C 
ATOM     37  O30 ZIN AC000     -15.112  11.192  11.430  0.00  0.00    -0.373 OA
ATOM     38  C29 ZIN AC000     -14.237  10.551  10.477  0.00  0.00     0.176 C 
BRANCH  36  39
ATOM     39  C32 ZIN AC000     -13.936  11.086  13.553  0.00  0.00     0.195 C 
BRANCH  39  40
ATOM     40  N33 ZIN AC000     -14.377  12.417  13.977  0.00  0.00    -0.259 N 
ATOM     41  N37 ZIN AC000     -14.775  13.477  13.146  0.00  0.00    -0.165 NA
ATOM     42  C36 ZIN AC000     -15.090  14.474  13.929  0.00  0.00     0.256 A 
ATOM     43  N35 ZIN AC000     -14.905  14.105  15.196  0.00  0.00    -0.234 NA
ATOM     44  C34 ZIN AC000     -14.476  12.869  15.239  0.00  0.00     0.230 A 
ENDBRANCH  39  40
ENDBRANCH  36  39
BRANCH  36  45
ATOM     45  C38 ZIN AC000     -16.333  10.453  13.373  0.00  0.00     0.017 A 
ATOM     46  C44 ZIN AC000     -16.474   9.773  14.571  0.00  0.00     0.128 A 
ATOM     47  C43 ZIN AC000     -17.692   9.775  15.229  0.00  0.00     0.085 A 
ATOM     48  F45 ZIN AC000     -15.420   9.117  15.104  0.00  0.00    -0.205 F 
ATOM     49  C41 ZIN AC000     -18.771  10.448  14.682  0.00  0.00     0.119 A 
ATOM     50  C40 ZIN AC000     -18.629  11.123  13.481  0.00  0.00     0.043 A 
ATOM     51  F42 ZIN AC000     -19.962  10.447  15.319  0.00  0.00    -0.206 F 
ATOM     52  C39 ZIN AC000     -17.411  11.124  12.828  0.00  0.00     0.016 A 
ENDBRANCH  36  45
ENDBRANCH  33  34
ENDBRANCH  32  33
ENDBRANCH   4  32
TORSDOF 13
