REMARK  5 active torsions:
REMARK  status: ('A' for Active; 'I' for Inactive)
REMARK    1  A    between atoms: C3_3  and  C5_4 
REMARK    2  A    between atoms: C5_4  and  O6_5 
REMARK    3  A    between atoms: C7_6  and  O9_7 
REMARK    4  A    between atoms: C11_9  and  N13_10 
REMARK    5  A    between atoms: C19_16  and  N20_17 
ROOT
ATOM      1  N13 <0> d           1.732  -1.092   1.349  0.00  0.00    -0.314 N 
ATOM      2  C14 <0> d           1.016  -1.583   2.402  0.00  0.00     0.212 A 
ATOM      3  N15 <0> d           1.768  -1.631   3.463  0.00  0.00    -0.234 NA
ATOM      4  C16 <0> d           3.007  -1.175   3.155  0.00  0.00     0.173 A 
ATOM      5  C17 <0> d           2.998  -0.831   1.799  0.00  0.00     0.185 A 
ATOM      6  N18 <0> d           4.109  -0.348   1.230  0.00  0.00    -0.044 NA
ATOM      7  C19 <0> d           5.213  -0.189   1.924  0.00  0.00     0.703 A 
ATOM      8  N21 <0> d           5.284  -0.505   3.248  0.00  0.00    -0.152 N 
ATOM      9  C22 <0> d           4.203  -1.003   3.890  0.00  0.00     0.292 A 
ATOM     10  O23 <0> d           4.256  -1.289   5.074  0.00  0.00    -0.265 OA
ATOM     11  H35 <0> d           6.115  -0.376   3.732  0.00  0.00     0.187 HD
ENDROOT
BRANCH   1  12
ATOM     12  C11 <0> d           1.237  -0.887  -0.015  0.00  0.00     0.123 C 
ATOM     13  C2  <0> d           0.002  -0.004   0.002  0.00  0.00    -0.057 C 
ATOM     14  C1  <0> d          -0.016   1.306   0.009  0.00  0.00     0.017 C 
ATOM     15  C3  <0> d          -1.206  -0.918   0.002  0.00  0.00     0.068 C 
ATOM     16  C7  <0> d          -0.671  -2.365  -0.018  0.00  0.00     0.130 C 
ATOM     17  C10 <0> d           0.750  -2.225  -0.619  0.00  0.00     0.062 C 
BRANCH  15  18
ATOM     18  C5  <0> d          -2.038  -0.684   1.264  0.00  0.00     0.175 C 
BRANCH  18  19
ATOM     19  O6  <0> d          -2.602   0.628   1.227  0.00  0.00    -0.400 OA
ATOM     20  H28 <0> d          -3.143   0.846   1.998  0.00  0.00     0.209 HD
ENDBRANCH  18  19
ENDBRANCH  15  18
BRANCH  16  21
ATOM     21  O9  <0> d          -1.491  -3.192  -0.847  0.00  0.00    -0.395 OA
ATOM     22  H29 <0> d          -1.199  -4.112  -0.895  0.00  0.00     0.210 HD
ENDBRANCH  16  21
ENDBRANCH   1  12
BRANCH   7  23
ATOM     23  N20 <0> d           6.327   0.311   1.298  0.00  0.00    -0.233 N 
ATOM     24  H33 <0> d           6.293   0.541   0.357  0.00  0.00     0.174 HD
ATOM     25  H34 <0> d           7.150   0.434   1.798  0.00  0.00     0.174 HD
ENDBRANCH   7  23
TORSDOF 5
