REMARK  5 active torsions:
REMARK  status: ('A' for Active; 'I' for Inactive)
REMARK    1  A    between atoms: C2_2  and  C12_12 
REMARK    2  A    between atoms: C3_3  and  C4_4 
REMARK    3  A    between atoms: C5_5  and  C6_6 
REMARK    4  A    between atoms: C8_8  and  C9_9 
REMARK    5  A    between atoms: C13_13  and  C14_14 
ROOT
ATOM      1  C1  ZIN AC000       1.489   0.351  -0.208  0.00  0.00     0.048 C 
ATOM      2  C2  ZIN AC000       0.301   0.763  -1.038  0.00  0.00    -0.062 C 
ATOM      3  C3  ZIN AC000      -0.779   1.347  -0.441  0.00  0.00     0.007 C 
ENDROOT
BRANCH   2   4
ATOM      4  C12 ZIN AC000       0.304   0.546  -2.427  0.00  0.00     0.007 C 
ATOM      5  C13 ZIN AC000       0.152   1.594  -3.279  0.00  0.00     0.009 C 
BRANCH   5   6
ATOM      6  C14 ZIN AC000       0.119   2.918  -2.775  0.00  0.00    -0.048 C 
ATOM      7  C20 ZIN AC000      -1.104   3.747  -3.040  0.00  0.00    -0.020 C 
ATOM      8  C19 ZIN AC000      -1.145   4.943  -2.084  0.00  0.00     0.014 C 
ATOM      9  C21 ZIN AC000      -1.081   4.252  -4.484  0.00  0.00     0.020 C 
ATOM     10  C22 ZIN AC000      -2.349   2.884  -2.827  0.00  0.00     0.020 C 
ATOM     11  C18 ZIN AC000       0.215   5.650  -2.135  0.00  0.00     0.005 C 
ATOM     12  C17 ZIN AC000       1.264   4.731  -1.506  0.00  0.00     0.034 C 
ATOM     13  C15 ZIN AC000       1.170   3.356  -2.101  0.00  0.00    -0.077 C 
ATOM     14  C16 ZIN AC000       2.339   2.422  -1.922  0.00  0.00     0.044 C 
ENDBRANCH   5   6
ENDBRANCH   2   4
BRANCH   3  15
ATOM     15  C4  ZIN AC000      -0.783   1.563   0.944  0.00  0.00     0.001 C 
ATOM     16  C5  ZIN AC000      -1.915   2.043   1.563  0.00  0.00     0.007 C 
BRANCH  16  17
ATOM     17  C6  ZIN AC000      -3.043   2.372   0.801  0.00  0.00    -0.056 C 
ATOM     18  C7  ZIN AC000      -3.809   1.291   0.084  0.00  0.00     0.048 C 
ATOM     19  C8  ZIN AC000      -3.453   3.683   0.708  0.00  0.00     0.091 C 
BRANCH  19  20
ATOM     20  C9  ZIN AC000      -2.675   4.704   1.278  0.00  0.00     0.199 C 
ATOM     21  O10 ZIN AC000      -1.486   4.418   1.811  0.00  0.00    -0.644 OA
ATOM     22  O11 ZIN AC000      -3.124   5.960   1.286  0.00  0.00    -0.644 OA
ENDBRANCH  19  20
ENDBRANCH  16  17
ENDBRANCH   3  15
TORSDOF 5
