REMARK  8 active torsions:
REMARK  status: ('A' for Active; 'I' for Inactive)
REMARK    1  A    between atoms: C2_2  and  C3_3 
REMARK    2  A    between atoms: C3_3  and  C6_6 
REMARK    3  A    between atoms: C6_6  and  O8_8 
REMARK    4  A    between atoms: O8_8  and  C9_9 
REMARK    5  A    between atoms: C22_19  and  C24_20 
REMARK    6  A    between atoms: C24_20  and  C25_21 
REMARK    7  A    between atoms: C25_21  and  C26_22 
REMARK    8  A    between atoms: C29_24  and  O31_25 
ROOT
ATOM      1  C9  ZIN AC000      -3.023  -4.812  -1.564  0.00  0.00     0.141 C 
ATOM      2  C11 ZIN AC000      -2.421  -5.623  -0.418  0.00  0.00     0.041 C 
ATOM      3  C12 ZIN AC000      -2.926  -7.068  -0.532  0.00  0.00     0.007 C 
ATOM      4  C14 ZIN AC000      -2.320  -7.919   0.586  0.00  0.00     0.014 C 
ATOM      5  C15 ZIN AC000      -4.427  -7.042  -0.399  0.00  0.00    -0.015 C 
ATOM      6  C16 ZIN AC000      -5.131  -6.013  -0.834  0.00  0.00    -0.055 C 
ATOM      7  C17 ZIN AC000      -6.590  -5.978  -0.582  0.00  0.00     0.004 C 
ATOM      8  C18 ZIN AC000      -7.251  -4.841  -0.708  0.00  0.00    -0.022 C 
ATOM      9  C19 ZIN AC000      -6.621  -3.543  -1.114  0.00  0.00     0.009 C 
ATOM     10  C21 ZIN AC000      -6.910  -3.290  -2.595  0.00  0.00     0.014 C 
ATOM     11  C22 ZIN AC000      -5.106  -3.559  -0.899  0.00  0.00     0.004 C 
ATOM     12  C36 ZIN AC000      -4.533  -4.828  -1.532  0.00  0.00     0.052 C 
ENDROOT
BRANCH  11  13
ATOM     13  C24 ZIN AC000      -4.482  -2.326  -1.554  0.00  0.00     0.009 C 
BRANCH  13  14
ATOM     14  C25 ZIN AC000      -5.385  -1.113  -1.323  0.00  0.00     0.033 C 
BRANCH  14  15
ATOM     15  C26 ZIN AC000      -4.788   0.108  -2.025  0.00  0.00     0.134 C 
ATOM     16  O35 ZIN AC000      -4.723  -0.138  -3.458  0.00  0.00    -0.316 OA
ATOM     17  C33 ZIN AC000      -4.351   0.916  -4.215  0.00  0.00     0.261 C 
ATOM     18  C32 ZIN AC000      -5.071   2.230  -4.011  0.00  0.00     0.142 C 
ATOM     19  O34 ZIN AC000      -3.466   0.812  -5.031  0.00  0.00    -0.265 OA
ATOM     20  C29 ZIN AC000      -5.099   2.540  -2.510  0.00  0.00     0.130 C 
ATOM     21  C28 ZIN AC000      -5.671   1.331  -1.763  0.00  0.00     0.065 C 
BRANCH  20  22
ATOM     22  O31 ZIN AC000      -3.772   2.803  -2.049  0.00  0.00    -0.395 OA
ATOM     23  H66 ZIN AC000      -3.348   3.558  -2.481  0.00  0.00     0.210 HD
ENDBRANCH  20  22
ENDBRANCH  14  15
ENDBRANCH  13  14
ENDBRANCH  11  13
BRANCH   1  24
ATOM     24  O8  ZIN AC000      -2.564  -3.438  -1.462  0.00  0.00    -0.315 OA
BRANCH  24  25
ATOM     25  C6  ZIN AC000      -1.360  -3.158  -1.987  0.00  0.00     0.267 C 
ATOM     26  O7  ZIN AC000      -0.759  -4.004  -2.605  0.00  0.00    -0.264 OA
BRANCH  25  27
ATOM     27  C3  ZIN AC000      -0.759  -1.788  -1.804  0.00  0.00     0.040 C 
ATOM     28  C4  ZIN AC000      -0.769  -1.421  -0.319  0.00  0.00     0.025 C 
ATOM     29  C5  ZIN AC000      -1.579  -0.762  -2.589  0.00  0.00     0.025 C 
BRANCH  27  30
ATOM     30  C2  ZIN AC000       0.682  -1.791  -2.318  0.00  0.00     0.014 C 
ATOM     31  C1  ZIN AC000       1.292  -0.400  -2.133  0.00  0.00     0.006 C 
ENDBRANCH  27  30
ENDBRANCH  25  27
ENDBRANCH  24  25
ENDBRANCH   1  24
TORSDOF 8
