REMARK  15 active torsions:
REMARK  status: ('A' for Active; 'I' for Inactive)
REMARK    1  A    between atoms: C2_2  and  C3_3 
REMARK    2  A    between atoms: C3_3  and  O5_5 
REMARK    3  A    between atoms: O5_5  and  C6_6 
REMARK    4  A    between atoms: C6_6  and  O8_7 
REMARK    5  A    between atoms: C6_6  and  C40_37 
REMARK    6  A    between atoms: O8_7  and  P9_8 
REMARK    7  A    between atoms: P9_8  and  C11_10 
REMARK    8  A    between atoms: P9_8  and  C21_20 
REMARK    9  A    between atoms: C11_10  and  C12_11 
REMARK   10  A    between atoms: C12_11  and  C13_12 
REMARK   11  A    between atoms: C13_12  and  C14_13 
REMARK   12  A    between atoms: C14_13  and  C15_14 
REMARK   13  A    between atoms: C21_20  and  C22_21 
REMARK       I    between atoms: C22_21  and  N24_23 
REMARK   14  A    between atoms: C26_25  and  C28_26 
REMARK   15  A    between atoms: C35_33  and  C37_34 
ROOT
ATOM      1  P9  ZIN AC000       1.601  -1.544   5.224  0.00  0.00     0.208 P 
ATOM      2  O10 ZIN AC000       2.502  -2.615   5.707  0.00  0.00    -0.291 OA
ENDROOT
BRANCH   1   3
ATOM      3  O8  ZIN AC000       0.981  -1.966   3.800  0.00  0.00    -0.301 OA
BRANCH   3   4
ATOM      4  C6  ZIN AC000       1.786  -2.344   2.682  0.00  0.00     0.280 C 
BRANCH   4   5
ATOM      5  O5  ZIN AC000       1.221  -1.784   1.467  0.00  0.00    -0.289 OA
BRANCH   5   6
ATOM      6  C3  ZIN AC000       1.306  -0.453   1.312  0.00  0.00     0.260 C 
ATOM      7  O4  ZIN AC000       1.836   0.221   2.164  0.00  0.00    -0.265 OA
BRANCH   6   8
ATOM      8  C2  ZIN AC000       0.742   0.200   0.077  0.00  0.00     0.107 C 
ATOM      9  C1  ZIN AC000       0.969   1.711   0.150  0.00  0.00     0.015 C 
ENDBRANCH   6   8
ENDBRANCH   5   6
ENDBRANCH   4   5
BRANCH   4  10
ATOM     10  C40 ZIN AC000       1.822  -3.870   2.571  0.00  0.00     0.034 C 
ATOM     11  C41 ZIN AC000       2.728  -4.276   1.407  0.00  0.00     0.014 C 
ATOM     12  C42 ZIN AC000       2.366  -4.463   3.872  0.00  0.00     0.014 C 
ENDBRANCH   4  10
ENDBRANCH   3   4
ENDBRANCH   1   3
BRANCH   1  13
ATOM     13  C11 ZIN AC000       2.544   0.006   5.042  0.00  0.00     0.102 C 
BRANCH  13  14
ATOM     14  C12 ZIN AC000       3.775  -0.246   4.170  0.00  0.00     0.010 C 
BRANCH  14  15
ATOM     15  C13 ZIN AC000       4.641   1.015   4.133  0.00  0.00     0.005 C 
BRANCH  15  16
ATOM     16  C14 ZIN AC000       5.872   0.763   3.261  0.00  0.00     0.038 C 
BRANCH  16  17
ATOM     17  C15 ZIN AC000       6.725   2.005   3.225  0.00  0.00    -0.058 A 
ATOM     18  C20 ZIN AC000       7.718   2.190   4.170  0.00  0.00     0.007 A 
ATOM     19  C19 ZIN AC000       8.502   3.327   4.134  0.00  0.00     0.001 A 
ATOM     20  C18 ZIN AC000       8.289   4.284   3.160  0.00  0.00     0.000 A 
ATOM     21  C17 ZIN AC000       7.293   4.102   2.218  0.00  0.00     0.001 A 
ATOM     22  C16 ZIN AC000       6.511   2.963   2.251  0.00  0.00     0.007 A 
ENDBRANCH  16  17
ENDBRANCH  15  16
ENDBRANCH  14  15
ENDBRANCH  13  14
ENDBRANCH   1  13
BRANCH   1  23
ATOM     23  C21 ZIN AC000       0.253  -1.297   6.426  0.00  0.00     0.204 C 
BRANCH  23  24
ATOM     24  C22 ZIN AC000      -0.450  -2.608   6.669  0.00  0.00     0.229 C 
ATOM     25  O23 ZIN AC000       0.034  -3.424   7.426  0.00  0.00    -0.273 OA
ATOM     26  N24 ZIN AC000      -1.615  -2.875   6.047  0.00  0.00    -0.337 N 
ATOM     27  C35 ZIN AC000      -2.309  -1.980   5.109  0.00  0.00     0.188 C 
ATOM     28  C25 ZIN AC000      -2.407  -4.109   6.197  0.00  0.00     0.132 C 
ATOM     29  C34 ZIN AC000      -3.607  -2.692   4.672  0.00  0.00     0.043 C 
ATOM     30  C26 ZIN AC000      -3.854  -3.699   5.827  0.00  0.00     0.010 C 
BRANCH  27  31
ATOM     31  C37 ZIN AC000      -2.644  -0.675   5.784  0.00  0.00     0.196 C 
ATOM     32  O38 ZIN AC000      -2.468  -0.546   6.984  0.00  0.00    -0.646 OA
ATOM     33  O39 ZIN AC000      -3.090   0.253   5.130  0.00  0.00    -0.646 OA
ENDBRANCH  27  31
BRANCH  30  34
ATOM     34  C28 ZIN AC000      -4.659  -4.906   5.340  0.00  0.00    -0.009 C 
ATOM     35  C33 ZIN AC000      -6.068  -4.456   4.950  0.00  0.00     0.005 C 
ATOM     36  C32 ZIN AC000      -6.872  -5.663   4.463  0.00  0.00     0.000 C 
ATOM     37  C31 ZIN AC000      -6.960  -6.702   5.583  0.00  0.00     0.000 C 
ATOM     38  C30 ZIN AC000      -5.551  -7.152   5.973  0.00  0.00     0.000 C 
ATOM     39  C29 ZIN AC000      -4.746  -5.945   6.460  0.00  0.00     0.005 C 
ENDBRANCH  30  34
ENDBRANCH  23  24
ENDBRANCH   1  23
TORSDOF 15
