REMARK  5 active torsions:
REMARK  status: ('A' for Active; 'I' for Inactive)
REMARK    1  A    between atoms: C3_3  and  C4_4 
REMARK    2  A    between atoms: C4_4  and  C5_5 
REMARK    3  A    between atoms: C5_5  and  N6_6 
REMARK    4  A    between atoms: C9_9  and  C10_10 
REMARK    5  A    between atoms: C28_28  and  O30_29 
ROOT
ATOM      1  N6  ZIN AC000      -4.301   0.826  -1.430  0.00  0.00     0.088 N 
ATOM      2  C7  ZIN AC000      -5.186   0.285  -0.391  0.00  0.00     0.273 C 
ATOM      3  C8  ZIN AC000      -6.466   1.122  -0.322  0.00  0.00     0.041 C 
ATOM      4  C9  ZIN AC000      -7.166   1.089  -1.683  0.00  0.00     0.044 C 
ATOM      5  C20 ZIN AC000      -6.206   1.612  -2.755  0.00  0.00     0.041 C 
ATOM      6  C21 ZIN AC000      -4.934   0.761  -2.754  0.00  0.00     0.273 C 
ENDROOT
BRANCH   1   7
ATOM      7  C5  ZIN AC000      -3.006   0.134  -1.431  0.00  0.00     0.277 C 
BRANCH   7   8
ATOM      8  C4  ZIN AC000      -2.495   0.005   0.005  0.00  0.00     0.076 C 
BRANCH   8   9
ATOM      9  C3  ZIN AC000      -1.166  -0.705   0.004  0.00  0.00     0.036 A 
ATOM     10  C2  ZIN AC000       0.002  -0.004   0.002  0.00  0.00     0.044 A 
ATOM     11  C1  ZIN AC000      -0.018   1.503   0.010  0.00  0.00     0.071 C 
ATOM     12  N32 ZIN AC000       1.161  -0.658  -0.013  0.00  0.00    -0.237 NA
ATOM     13  C31 ZIN AC000       1.232  -1.972  -0.006  0.00  0.00     0.138 A 
ATOM     14  N24 ZIN AC000       0.117  -2.718   0.017  0.00  0.00    -0.300 N 
ATOM     15  C28 ZIN AC000       2.616  -2.575  -0.032  0.00  0.00     0.188 C 
ATOM     16  C22 ZIN AC000      -1.098  -2.110   0.004  0.00  0.00     0.257 A 
ATOM     17  C25 ZIN AC000       0.123  -4.181   0.068  0.00  0.00     0.134 C 
ATOM     18  O23 ZIN AC000      -2.119  -2.776  -0.008  0.00  0.00    -0.267 OA
ATOM     19  C26 ZIN AC000       1.468  -4.742  -0.381  0.00  0.00     0.023 C 
ATOM     20  C27 ZIN AC000       2.573  -4.035   0.414  0.00  0.00     0.041 C 
BRANCH  15  21
ATOM     21  O30 ZIN AC000       3.466  -1.838   0.849  0.00  0.00    -0.388 OA
ATOM     22  H58 ZIN AC000       3.542  -0.899   0.629  0.00  0.00     0.210 HD
ENDBRANCH  15  21
ENDBRANCH   8   9
ENDBRANCH   7   8
ENDBRANCH   1   7
BRANCH   4  23
ATOM     23  C10 ZIN AC000      -8.395   1.960  -1.639  0.00  0.00     0.079 A 
ATOM     24  C19 ZIN AC000      -9.775   1.525  -1.871  0.00  0.00     0.027 A 
ATOM     25  C13 ZIN AC000     -10.581   2.667  -1.725  0.00  0.00     0.116 A 
ATOM     26  C18 ZIN AC000     -10.362   0.291  -2.164  0.00  0.00     0.019 A 
ATOM     27  O12 ZIN AC000      -9.759   3.698  -1.441  0.00  0.00    -0.212 OA
ATOM     28  C14 ZIN AC000     -11.956   2.558  -1.887  0.00  0.00     0.082 A 
ATOM     29  N11 ZIN AC000      -8.425   3.233  -1.395  0.00  0.00    -0.131 NA
ATOM     30  C15 ZIN AC000     -12.516   1.331  -2.182  0.00  0.00     0.119 A 
ATOM     31  F16 ZIN AC000     -13.854   1.227  -2.339  0.00  0.00    -0.206 F 
ATOM     32  C17 ZIN AC000     -11.716   0.203  -2.320  0.00  0.00     0.043 A 
ENDBRANCH   4  23
TORSDOF 5
