REMARK  7 active torsions:
REMARK  status: ('A' for Active; 'I' for Inactive)
REMARK    1  A    between atoms: O2_2  and  C3_3 
REMARK    2  A    between atoms: C6_6  and  C7_7 
REMARK    3  A    between atoms: C7_7  and  N8_8 
REMARK    4  A    between atoms: N8_8  and  C9_9 
REMARK    5  A    between atoms: N8_8  and  C14_14 
REMARK    6  A    between atoms: C9_9  and  C10_10 
REMARK    7  A    between atoms: C10_10  and  N11_11 
ROOT
ATOM      1  N8  ZIN AC000       1.620  -2.797   5.383  0.00  0.00    -0.208 N 
ENDROOT
BRANCH   1   2
ATOM      2  C7  ZIN AC000       2.587  -2.550   4.310  0.00  0.00     0.180 C 
BRANCH   2   3
ATOM      3  C6  ZIN AC000       1.895  -1.869   3.158  0.00  0.00    -0.040 A 
ATOM      4  C5  ZIN AC000       1.835  -0.488   3.107  0.00  0.00     0.011 A 
ATOM      5  C4  ZIN AC000       1.202   0.138   2.051  0.00  0.00     0.037 A 
ATOM      6  C3  ZIN AC000       0.626  -0.618   1.042  0.00  0.00     0.068 A 
ATOM      7  C21 ZIN AC000       0.682  -2.003   1.098  0.00  0.00     0.037 A 
ATOM      8  C20 ZIN AC000       1.321  -2.625   2.153  0.00  0.00     0.011 A 
BRANCH   6   9
ATOM      9  O2  ZIN AC000       0.002  -0.004   0.002  0.00  0.00    -0.356 OA
ATOM     10  C1  ZIN AC000      -0.017   1.425   0.010  0.00  0.00     0.210 C 
ENDBRANCH   6   9
ENDBRANCH   2   3
ENDBRANCH   1   2
BRANCH   1  11
ATOM     11  C9  ZIN AC000       0.865  -4.051   5.414  0.00  0.00     0.172 C 
BRANCH  11  12
ATOM     12  C10 ZIN AC000       1.640  -5.094   6.222  0.00  0.00     0.291 C 
BRANCH  12  13
ATOM     13  N11 ZIN AC000       0.883  -6.352   6.253  0.00  0.00     0.081 N 
ATOM     14  C12 ZIN AC000       1.694  -7.442   6.812  0.00  0.00     0.309 C 
ATOM     15  C13 ZIN AC000      -0.372  -6.193   7.001  0.00  0.00     0.309 C 
ENDBRANCH  12  13
ENDBRANCH  11  12
ENDBRANCH   1  11
BRANCH   1  16
ATOM     16  C14 ZIN AC000       1.420  -1.844   6.367  0.00  0.00     0.724 A 
ATOM     17  N19 ZIN AC000       2.112  -0.715   6.324  0.00  0.00    -0.075 NA
ATOM     18  C18 ZIN AC000       1.942   0.218   7.247  0.00  0.00     0.138 A 
ATOM     19  C17 ZIN AC000       1.035  -0.002   8.271  0.00  0.00     0.040 A 
ATOM     20  C16 ZIN AC000       0.332  -1.197   8.289  0.00  0.00     0.138 A 
ATOM     21  N15 ZIN AC000       0.546  -2.086   7.333  0.00  0.00    -0.075 NA
ENDBRANCH   1  16
TORSDOF 7
