REMARK  5 active torsions:
REMARK  status: ('A' for Active; 'I' for Inactive)
REMARK    1  A    between atoms: C2_2  and  N3_3 
REMARK    2  A    between atoms: N3_3  and  C4_4 
REMARK    3  A    between atoms: N3_3  and  C6_6 
REMARK    4  A    between atoms: C6_6  and  C9_8 
REMARK    5  A    between atoms: C9_8  and  C11_10 
ROOT
ATOM      1  C9  ZIN AC000       0.868  -2.709  -2.537  0.00  0.00     0.192 C 
ATOM      2  O10 ZIN AC000       1.804  -2.155  -3.074  0.00  0.00    -0.290 OA
ENDROOT
BRANCH   1   3
ATOM      3  C6  ZIN AC000       0.214  -2.086  -1.330  0.00  0.00     0.293 C 
ATOM      4  C8  ZIN AC000       0.777  -2.724  -0.059  0.00  0.00     0.051 C 
BRANCH   3   5
ATOM      5  N3  ZIN AC000       0.488  -0.642  -1.316  0.00  0.00     0.099 N 
BRANCH   5   6
ATOM      6  C2  ZIN AC000      -0.139   0.024  -2.465  0.00  0.00     0.269 C 
ATOM      7  C1  ZIN AC000       0.367   1.465  -2.558  0.00  0.00     0.037 C 
ENDBRANCH   5   6
BRANCH   5   8
ATOM      8  C4  ZIN AC000       0.050  -0.036  -0.052  0.00  0.00     0.269 C 
ATOM      9  C5  ZIN AC000      -1.450  -0.275   0.135  0.00  0.00     0.037 C 
ENDBRANCH   5   8
ENDBRANCH   3   5
ENDBRANCH   1   3
BRANCH   1  10
ATOM     10  C11 ZIN AC000       0.370  -3.990  -3.064  0.00  0.00     0.012 A 
ATOM     11  C16 ZIN AC000       0.974  -4.572  -4.183  0.00  0.00     0.015 A 
ATOM     12  C15 ZIN AC000       0.506  -5.775  -4.667  0.00  0.00     0.001 A 
ATOM     13  C14 ZIN AC000      -0.566  -6.401  -4.055  0.00  0.00     0.000 A 
ATOM     14  C13 ZIN AC000      -1.173  -5.829  -2.951  0.00  0.00     0.001 A 
ATOM     15  C12 ZIN AC000      -0.712  -4.629  -2.451  0.00  0.00     0.015 A 
ENDBRANCH   1  10
TORSDOF 5
