REMARK  1 active torsions:
REMARK  status: ('A' for Active; 'I' for Inactive)
REMARK    1  A    between atoms: N2_2  and  C5_5 
ROOT
ATOM      1  C5  <0> d           0.489  -0.516  -1.317  0.00  0.00     0.132 C 
ATOM      2  C6  <0> d           1.768   0.318  -1.414  0.00  0.00     0.047 C 
ATOM      3  C7  <0> d          -0.327  -0.421  -2.642  0.00  0.00     0.022 C 
ATOM      4  C9  <0> d          -1.695  -1.091  -2.307  0.00  0.00     0.007 C 
ATOM      5  C10 <0> d          -1.368  -2.594  -2.156  0.00  0.00     0.006 C 
ATOM      6  C11 <0> d           0.167  -2.692  -2.414  0.00  0.00    -0.004 C 
ATOM      7  C13 <0> d           0.368  -1.544  -3.491  0.00  0.00     0.012 C 
ATOM      8  C14 <0> d           0.834  -2.017  -1.176  0.00  0.00    -0.011 C 
ATOM      9  C15 <0> d           2.347  -2.244  -1.196  0.00  0.00     0.018 C 
ATOM     10  C16 <0> d           0.228  -2.561   0.119  0.00  0.00     0.018 C 
ENDROOT
BRANCH   1  11
ATOM     11  N2  <0> d          -0.328  -0.070  -0.180  0.00  0.00    -0.069 N 
ATOM     12  C1  <0> d          -0.739   1.324  -0.390  0.00  0.00     0.267 C 
ATOM     13  H3  <0> d           0.213  -0.137   0.669  0.00  0.00     0.277 HD
ATOM     14  H4  <0> d          -1.147  -0.655  -0.104  0.00  0.00     0.277 HD
ENDBRANCH   1  11
TORSDOF 1
