REMARK  2 active torsions:
REMARK  status: ('A' for Active; 'I' for Inactive)
REMARK    1  A    between atoms: S2_2  and  C5_5 
REMARK    2  A    between atoms: C10_10  and  C11_11 
ROOT
ATOM      1  C5  <0> d          -0.764   1.940   1.529  0.00  0.00     0.083 A 
ATOM      2  C6  <0> d          -0.399   3.142   2.117  0.00  0.00     0.028 A 
ATOM      3  C7  <0> d          -0.972   3.542   3.307  0.00  0.00     0.033 A 
ATOM      4  C8  <0> d          -1.921   2.735   3.918  0.00  0.00     0.062 A 
ATOM      5  N9  <0> d          -2.665   2.838   5.077  0.00  0.00    -0.338 N 
ATOM      6  C10 <0> d          -3.446   1.718   5.158  0.00  0.00     0.139 A 
ATOM      7  N17 <0> d          -3.222   0.945   4.124  0.00  0.00    -0.228 NA
ATOM      8  C18 <0> d          -2.292   1.516   3.321  0.00  0.00     0.087 A 
ATOM      9  C19 <0> d          -1.700   1.135   2.113  0.00  0.00     0.060 A 
ATOM     10  H22 <0> d          -2.638   3.569   5.714  0.00  0.00     0.167 HD
ENDROOT
BRANCH   6  11
ATOM     11  C11 <0> d          -4.400   1.423   6.250  0.00  0.00     0.010 A 
ATOM     12  C16 <0> d          -5.147   0.244   6.229  0.00  0.00     0.015 A 
ATOM     13  C15 <0> d          -6.031  -0.027   7.252  0.00  0.00     0.001 A 
ATOM     14  C14 <0> d          -6.186   0.872   8.292  0.00  0.00     0.000 A 
ATOM     15  C13 <0> d          -5.453   2.045   8.317  0.00  0.00     0.001 A 
ATOM     16  C12 <0> d          -4.561   2.325   7.302  0.00  0.00     0.015 A 
ENDBRANCH   6  11
BRANCH   1  17
ATOM     17  S2  <0> d          -0.018   1.450   0.010  0.00  0.00     0.137 S 
ATOM     18  O1  <0> d           0.002  -0.004   0.002  0.00  0.00    -0.591 OA
ATOM     19  O3  <0> d           1.323   2.015   0.000  0.00  0.00    -0.591 OA
ATOM     20  O4  <0> d          -0.845   1.991  -1.057  0.00  0.00    -0.591 OA
ENDBRANCH   1  17
TORSDOF 2
