REMARK  2 active torsions:
REMARK  status: ('A' for Active; 'I' for Inactive)
REMARK    1  A    between atoms: C7_7  and  C8_8 
REMARK    2  A    between atoms: C8_8  and  N9_9 
ROOT
ATOM      1  N9  ZIN AC000       2.757   1.152   1.315  0.00  0.00    -0.063 N 
ATOM      2  H10 ZIN AC000       1.979   0.578   1.606  0.00  0.00     0.280 HD
ATOM      3  C11 ZIN AC000       3.974   0.331   1.261  0.00  0.00     0.240 C 
ATOM      4  C12 ZIN AC000       4.076  -0.503   2.544  0.00  0.00     0.074 C 
ATOM      5  C13 ZIN AC000       3.871   0.427   3.721  0.00  0.00    -0.008 A 
ATOM      6  C14 ZIN AC000       3.360   1.670   3.612  0.00  0.00    -0.019 A 
ATOM      7  C15 ZIN AC000       3.267   2.342   4.825  0.00  0.00     0.017 A 
ATOM      8  C16 ZIN AC000       3.687   1.666   5.892  0.00  0.00     0.051 A 
ATOM      9  S17 ZIN AC000       4.248   0.075   5.398  0.00  0.00    -0.106 SA
ATOM     10  C18 ZIN AC000       2.936   2.252   2.271  0.00  0.00     0.274 C 
ENDROOT
BRANCH   1  11
ATOM     11  C8  ZIN AC000       2.482   1.705  -0.018  0.00  0.00     0.275 C 
BRANCH  11  12
ATOM     12  C7  ZIN AC000       1.167   2.440   0.004  0.00  0.00    -0.011 A 
ATOM     13  C2  ZIN AC000      -0.021   1.732   0.012  0.00  0.00     0.042 A 
ATOM     14 Cl1  ZIN AC000       0.002  -0.004   0.002  0.00  0.00    -0.084 Cl
ATOM     15  C3  ZIN AC000      -1.228   2.407   0.033  0.00  0.00     0.024 A 
ATOM     16  C4  ZIN AC000      -1.247   3.789   0.040  0.00  0.00     0.002 A 
ATOM     17  C5  ZIN AC000      -0.059   4.497   0.027  0.00  0.00     0.001 A 
ATOM     18  C6  ZIN AC000       1.148   3.822   0.006  0.00  0.00     0.010 A 
ENDBRANCH  11  12
ENDBRANCH   1  11
TORSDOF 2
