REMARK  5 active torsions:
REMARK  status: ('A' for Active; 'I' for Inactive)
REMARK    1  A    between atoms: N2_2  and  C5_5 
REMARK    2  A    between atoms: C5_5  and  C6_6 
REMARK    3  A    between atoms: C6_6  and  C7_7 
REMARK    4  A    between atoms: C7_7  and  C8_8 
REMARK    5  A    between atoms: C8_8  and  C9_9 
ROOT
ATOM      1  C8  <0> d          -4.215  -0.237  -2.574  0.00  0.00     0.116 C 
ATOM      2  O16 <0> d          -3.658  -0.944  -3.697  0.00  0.00    -0.366 OA
ATOM      3  C17 <0> d          -4.761  -1.133  -4.602  0.00  0.00     0.209 C 
ATOM      4  C18 <0> d          -6.001  -1.187  -3.740  0.00  0.00    -0.023 A 
ATOM      5  C19 <0> d          -7.277  -1.648  -3.974  0.00  0.00     0.032 A 
ATOM      6  C20 <0> d          -8.240  -1.566  -2.964  0.00  0.00     0.045 A 
ATOM      7  C21 <0> d          -9.569  -2.044  -3.199  0.00  0.00     0.099 C 
ATOM      8  N22 <0> d         -10.624  -2.423  -3.385  0.00  0.00    -0.191 NA
ATOM      9  C23 <0> d          -7.900  -1.018  -1.726  0.00  0.00     0.023 A 
ATOM     10  C24 <0> d          -6.617  -0.560  -1.506  0.00  0.00     0.012 A 
ATOM     11  C25 <0> d          -5.670  -0.643  -2.507  0.00  0.00    -0.011 A 
ENDROOT
BRANCH   1  12
ATOM     12  C7  <0> d          -3.496  -0.643  -1.286  0.00  0.00     0.050 C 
BRANCH  12  13
ATOM     13  C6  <0> d          -2.059  -0.116  -1.317  0.00  0.00     0.031 C 
BRANCH  13  14
ATOM     14  C5  <0> d          -1.340  -0.521  -0.029  0.00  0.00     0.234 C 
BRANCH  14  15
ATOM     15  N2  <0> d           0.039  -0.016  -0.059  0.00  0.00    -0.079 N 
ATOM     16  C1  <0> d           0.022   1.453  -0.049  0.00  0.00     0.269 C 
ATOM     17  H3  <0> d           0.499  -0.341  -0.896  0.00  0.00     0.278 HD
ATOM     18  C4  <0> d           0.765  -0.505   1.121  0.00  0.00     0.269 C 
ENDBRANCH  14  15
ENDBRANCH  13  14
ENDBRANCH  12  13
ENDBRANCH   1  12
BRANCH   1  19
ATOM     19  C9  <0> d          -4.100   1.250  -2.786  0.00  0.00    -0.019 A 
ATOM     20  C15 <0> d          -3.383   1.741  -3.861  0.00  0.00     0.013 A 
ATOM     21  C14 <0> d          -3.281   3.105  -4.060  0.00  0.00     0.043 A 
ATOM     22  C12 <0> d          -3.889   3.980  -3.175  0.00  0.00     0.116 A 
ATOM     23  C11 <0> d          -4.602   3.487  -2.096  0.00  0.00     0.043 A 
ATOM     24  F13 <0> d          -3.785   5.314  -3.365  0.00  0.00    -0.206 F 
ATOM     25  C10 <0> d          -4.707   2.123  -1.902  0.00  0.00     0.013 A 
ENDBRANCH   1  19
TORSDOF 5
