REMARK  5 active torsions:
REMARK  status: ('A' for Active; 'I' for Inactive)
REMARK    1  A    between atoms: O1_1  and  C2_2 
REMARK    2  A    between atoms: C2_2  and  C4_3 
REMARK    3  A    between atoms: C2_2  and  C22_21 
REMARK    4  A    between atoms: C9_8  and  C10_9 
REMARK    5  A    between atoms: C16_15  and  C17_16 
ROOT
ATOM      1  C4  <0> d           0.731  -0.503   1.223  0.00  0.00    -0.013 A 
ATOM      2  C5  <0> d           0.474  -1.785   1.745  0.00  0.00     0.002 A 
ATOM      3  C6  <0> d          -0.466  -2.642   1.150  0.00  0.00     0.014 A 
ATOM      4  C7  <0> d          -0.686  -3.874   1.685  0.00  0.00     0.002 A 
ATOM      5  C8  <0> d           0.011  -4.298   2.816  0.00  0.00     0.019 A 
ATOM      6  C9  <0> d           0.928  -3.493   3.417  0.00  0.00     0.077 A 
ATOM      7  C14 <0> d           1.183  -2.213   2.895  0.00  0.00     0.083 A 
ATOM      8  N15 <0> d           2.080  -1.402   3.463  0.00  0.00    -0.243 NA
ATOM      9  C16 <0> d           2.322  -0.207   2.980  0.00  0.00     0.141 A 
ATOM     10  C21 <0> d           1.663   0.273   1.850  0.00  0.00     0.047 A 
ENDROOT
BRANCH   1  11
ATOM     11  C2  <0> d           0.002  -0.004   0.002  0.00  0.00     0.182 C 
BRANCH  11  12
ATOM     12  O1  <0> d          -0.017   1.425   0.010  0.00  0.00    -0.389 OA
ATOM     13  H31 <0> d           0.861   1.830   0.004  0.00  0.00     0.210 HD
ENDBRANCH  11  12
BRANCH  11  14
ATOM     14  C22 <0> d           0.718  -0.497  -1.257  0.00  0.00     0.219 C 
ATOM     15  N28 <0> d           2.128  -0.091  -1.208  0.00  0.00    -0.068 N 
ATOM     16  C27 <0> d           2.841  -0.626  -2.374  0.00  0.00     0.233 C 
ATOM     17  H29 <0> d           2.188   0.916  -1.211  0.00  0.00     0.277 HD
ATOM     18  H30 <0> d           2.549  -0.450  -0.364  0.00  0.00     0.277 HD
ATOM     19  C26 <0> d           2.256  -0.024  -3.654  0.00  0.00     0.027 C 
ATOM     20  C25 <0> d           0.771  -0.387  -3.750  0.00  0.00     0.004 C 
ATOM     21  C24 <0> d           0.052   0.110  -2.493  0.00  0.00     0.036 C 
ENDBRANCH  11  14
ENDBRANCH   1  11
BRANCH   9  22
ATOM     22  C17 <0> d           3.344   0.667   3.660  0.00  0.00     0.434 C 
ATOM     23  F18 <0> d           3.961  -0.052   4.690  0.00  0.00    -0.165 F 
ATOM     24  F19 <0> d           4.308   1.069   2.729  0.00  0.00    -0.165 F 
ATOM     25  F20 <0> d           2.711   1.795   4.194  0.00  0.00    -0.165 F 
ENDBRANCH   9  22
BRANCH   6  26
ATOM     26  C10 <0> d           1.669  -3.973   4.639  0.00  0.00     0.419 C 
ATOM     27  F11 <0> d           1.246  -5.266   4.963  0.00  0.00    -0.166 F 
ATOM     28  F12 <0> d           3.043  -3.984   4.377  0.00  0.00    -0.166 F 
ATOM     29  F13 <0> d           1.406  -3.113   5.711  0.00  0.00    -0.166 F 
ENDBRANCH   6  26
TORSDOF 5
