REMARK  10 active torsions:
REMARK  status: ('A' for Active; 'I' for Inactive)
REMARK    1  A    between atoms: C2_2  and  O4_4 
REMARK    2  A    between atoms: C2_2  and  C37_35 
REMARK    3  A    between atoms: O4_4  and  N5_5 
REMARK    4  A    between atoms: C6_6  and  C7_7 
REMARK    5  A    between atoms: C6_6  and  C31_29 
REMARK       I    between atoms: C7_7  and  N9_9 
REMARK    6  A    between atoms: N9_9  and  C10_10 
REMARK    7  A    between atoms: C15_14  and  C16_15 
REMARK    8  A    between atoms: C19_18  and  C20_19 
REMARK    9  A    between atoms: C20_19  and  N21_20 
REMARK   10  A    between atoms: C34_32  and  N35_33 
ROOT
ATOM      1  C7  ZIN AC000      -4.341  -0.510   0.990  0.00  0.00     0.275 C 
ATOM      2  O8  ZIN AC000      -5.549  -0.467   0.866  0.00  0.00    -0.266 OA
ATOM      3  N9  ZIN AC000      -3.556  -0.655  -0.096  0.00  0.00    -0.339 N 
ATOM      4  H46 ZIN AC000      -2.595  -0.731   0.007  0.00  0.00     0.163 HD
ENDROOT
BRANCH   3   5
ATOM      5  C10 ZIN AC000      -4.156  -0.698  -1.432  0.00  0.00     0.211 C 
ATOM      6  C29 ZIN AC000      -3.144  -0.534  -2.562  0.00  0.00     0.187 C 
ATOM      7  N14 ZIN AC000      -3.333  -2.005  -2.783  0.00  0.00    -0.293 N 
ATOM      8  S28 ZIN AC000      -1.409  -0.341  -2.035  0.00  0.00    -0.136 SA
ATOM      9  C12 ZIN AC000      -4.385  -2.107  -1.952  0.00  0.00     0.251 C 
ATOM     10  C15 ZIN AC000      -2.482  -2.856  -3.510  0.00  0.00     0.120 C 
ATOM     11  O13 ZIN AC000      -5.195  -2.977  -1.713  0.00  0.00    -0.271 OA
ATOM     12  C19 ZIN AC000      -1.228  -2.493  -3.746  0.00  0.00    -0.019 C 
ATOM     13  C27 ZIN AC000      -0.548  -1.217  -3.376  0.00  0.00     0.114 C 
BRANCH  10  14
ATOM     14  C16 ZIN AC000      -2.982  -4.148  -4.008  0.00  0.00     0.227 C 
ATOM     15  O17 ZIN AC000      -2.287  -4.827  -4.751  0.00  0.00    -0.643 OA
ATOM     16  O18 ZIN AC000      -4.092  -4.543  -3.678  0.00  0.00    -0.643 OA
ENDBRANCH  10  14
BRANCH  12  17
ATOM     17  C20 ZIN AC000      -0.382  -3.499  -4.483  0.00  0.00     0.165 C 
BRANCH  17  18
ATOM     18  N21 ZIN AC000      -0.349  -3.160  -5.908  0.00  0.00    -0.362 N 
ATOM     19  C26 ZIN AC000       0.391  -2.146  -6.310  0.00  0.00     0.090 A 
ATOM     20  C25 ZIN AC000       0.450  -1.800  -7.647  0.00  0.00     0.017 A 
ATOM     21  C24 ZIN AC000      -0.290  -2.528  -8.566  0.00  0.00     0.003 A 
ATOM     22  C23 ZIN AC000      -1.061  -3.584  -8.105  0.00  0.00     0.017 A 
ATOM     23  C22 ZIN AC000      -1.066  -3.874  -6.754  0.00  0.00     0.090 A 
ENDBRANCH  17  18
ENDBRANCH  12  17
ENDBRANCH   3   5
BRANCH   1  24
ATOM     24  C6  ZIN AC000      -3.730  -0.402   2.336  0.00  0.00     0.180 C 
ATOM     25  N5  ZIN AC000      -4.481  -0.166   3.375  0.00  0.00    -0.125 NA
BRANCH  25  26
ATOM     26  O4  ZIN AC000      -5.866   0.075   3.207  0.00  0.00    -0.234 OA
BRANCH  26  27
ATOM     27  C2  ZIN AC000      -6.544   0.429   4.414  0.00  0.00     0.171 C 
ATOM     28  C1  ZIN AC000      -6.522  -0.758   5.379  0.00  0.00     0.060 C 
ATOM     29  C3  ZIN AC000      -5.843   1.625   5.061  0.00  0.00     0.060 C 
BRANCH  27  30
ATOM     30  C37 ZIN AC000      -7.972   0.794   4.100  0.00  0.00     0.211 C 
ATOM     31  O38 ZIN AC000      -8.701   1.218   4.980  0.00  0.00    -0.646 OA
ATOM     32  O39 ZIN AC000      -8.398   0.665   2.965  0.00  0.00    -0.646 OA
ENDBRANCH  27  30
ENDBRANCH  26  27
ENDBRANCH  25  26
BRANCH  24  33
ATOM     33  C31 ZIN AC000      -2.269  -0.561   2.500  0.00  0.00     0.102 A 
ATOM     34  N36 ZIN AC000      -1.461  -0.838   1.476  0.00  0.00    -0.222 NA
ATOM     35  C34 ZIN AC000      -0.197  -0.950   1.741  0.00  0.00     0.164 A 
ATOM     36  S33 ZIN AC000       0.068  -0.701   3.464  0.00  0.00    -0.062 SA
ATOM     37  C32 ZIN AC000      -1.660  -0.443   3.696  0.00  0.00     0.087 A 
BRANCH  35  38
ATOM     38  N35 ZIN AC000       0.792  -1.229   0.813  0.00  0.00    -0.378 N 
ATOM     39  H57 ZIN AC000       1.717  -1.301   1.096  0.00  0.00     0.158 HD
ATOM     40  H58 ZIN AC000       0.560  -1.353  -0.121  0.00  0.00     0.158 HD
ENDBRANCH  35  38
ENDBRANCH  24  33
ENDBRANCH   1  24
TORSDOF 10
