REMARK  9 active torsions:
REMARK  status: ('A' for Active; 'I' for Inactive)
REMARK    1  A    between atoms: C3_3  and  C4_4 
REMARK    2  A    between atoms: C7_7  and  O8_8 
REMARK    3  A    between atoms: N11_11  and  C12_12 
REMARK    4  A    between atoms: C12_12  and  C13_13 
REMARK    5  A    between atoms: C16_16  and  O17_17 
REMARK    6  A    between atoms: O17_17  and  C18_18 
REMARK    7  A    between atoms: C18_18  and  C19_19 
REMARK    8  A    between atoms: C19_19  and  N20_20 
REMARK    9  A    between atoms: C33_33  and  O34_34 
ROOT
ATOM      1  C1  <0> d          -0.505  -0.775   3.018  0.00  0.00     0.051 C 
ATOM      2  C2  <0> d          -0.471  -1.068   1.541  0.00  0.00    -0.022 A 
ATOM      3  C3  <0> d          -0.332  -2.288   0.963  0.00  0.00     0.052 A 
ATOM      4  N11 <0> d          -0.347  -2.154  -0.406  0.00  0.00    -0.341 N 
ATOM      5  C30 <0> d          -0.498  -0.824  -0.743  0.00  0.00     0.046 A 
ATOM      6  C31 <0> d          -0.574  -0.155  -1.959  0.00  0.00     0.033 A 
ATOM      7  C32 <0> d          -0.729   1.214  -1.984  0.00  0.00     0.039 A 
ATOM      8  C33 <0> d          -0.811   1.940  -0.800  0.00  0.00     0.066 A 
ATOM      9  C35 <0> d          -0.740   1.295   0.419  0.00  0.00     0.051 A 
ATOM     10  C36 <0> d          -0.587  -0.094   0.457  0.00  0.00     0.002 A 
ENDROOT
BRANCH   4  11
ATOM     11  C12 <0> d          -0.222  -3.257  -1.362  0.00  0.00     0.168 C 
BRANCH  11  12
ATOM     12  C13 <0> d           1.236  -3.542  -1.612  0.00  0.00    -0.040 A 
ATOM     13  C29 <0> d           1.877  -4.537  -0.897  0.00  0.00     0.011 A 
ATOM     14  C28 <0> d           3.213  -4.804  -1.128  0.00  0.00     0.037 A 
ATOM     15  C16 <0> d           3.913  -4.066  -2.071  0.00  0.00     0.068 A 
ATOM     16  C15 <0> d           3.269  -3.064  -2.783  0.00  0.00     0.037 A 
ATOM     17  C14 <0> d           1.932  -2.805  -2.552  0.00  0.00     0.011 A 
BRANCH  15  18
ATOM     18  O17 <0> d           5.229  -4.323  -2.296  0.00  0.00    -0.350 OA
BRANCH  18  19
ATOM     19  C18 <0> d           5.827  -5.368  -1.526  0.00  0.00     0.203 C 
BRANCH  19  20
ATOM     20  C19 <0> d           7.299  -5.510  -1.916  0.00  0.00     0.261 C 
BRANCH  20  21
ATOM     21  N20 <0> d           8.013  -4.266  -1.593  0.00  0.00    -0.069 N 
ATOM     22  H21 <0> d           7.540  -3.498  -2.046  0.00  0.00     0.280 HD
ATOM     23  C27 <0> d           9.387  -4.358  -2.132  0.00  0.00     0.235 C 
ATOM     24  C26 <0> d          10.321  -3.339  -1.539  0.00  0.00     0.028 C 
ATOM     25  C25 <0> d          11.060  -3.997  -0.353  0.00  0.00     0.002 C 
ATOM     26  C24 <0> d          10.231  -4.063   0.843  0.00  0.00     0.002 C 
ATOM     27  C23 <0> d           8.954  -4.902   0.621  0.00  0.00     0.028 C 
ATOM     28  C22 <0> d           7.960  -4.058  -0.131  0.00  0.00     0.235 C 
ENDBRANCH  20  21
ENDBRANCH  19  20
ENDBRANCH  18  19
ENDBRANCH  15  18
ENDBRANCH  11  12
ENDBRANCH   4  11
BRANCH   3  29
ATOM     29  C4  <0> d          -0.187  -3.565   1.693  0.00  0.00    -0.009 A 
ATOM     30  C10 <0> d           0.832  -3.722   2.634  0.00  0.00     0.016 A 
ATOM     31  C9  <0> d           0.962  -4.913   3.316  0.00  0.00     0.037 A 
ATOM     32  C7  <0> d           0.086  -5.960   3.061  0.00  0.00     0.065 A 
ATOM     33  C6  <0> d          -0.927  -5.810   2.122  0.00  0.00     0.037 A 
ATOM     34  C5  <0> d          -1.066  -4.620   1.440  0.00  0.00     0.016 A 
BRANCH  32  35
ATOM     35  O8  <0> d           0.219  -7.134   3.731  0.00  0.00    -0.361 OA
ATOM     36  H42 <0> d           0.799  -7.773   3.294  0.00  0.00     0.217 HD
ENDBRANCH  32  35
ENDBRANCH   3  29
BRANCH   8  37
ATOM     37  O34 <0> d          -0.964   3.291  -0.843  0.00  0.00    -0.361 OA
ATOM     38  H69 <0> d          -1.886   3.582  -0.856  0.00  0.00     0.217 HD
ENDBRANCH   8  37
TORSDOF 9
