REMARK  4 active torsions:
REMARK  status: ('A' for Active; 'I' for Inactive)
REMARK    1  A    between atoms: C6_6  and  C7_7 
REMARK    2  A    between atoms: C7_7  and  C8_8 
REMARK    3  A    between atoms: C8_8  and  N9_9 
REMARK    4  A    between atoms: N13_13  and  C14_14 
ROOT
ATOM      1  N9  ZIN AC000      -1.746   9.126   1.502  0.00  0.00    -0.069 N 
ATOM      2  H10 ZIN AC000      -1.293   9.723   0.826  0.00  0.00     0.280 HD
ATOM      3  C11 ZIN AC000      -1.612   9.714   2.841  0.00  0.00     0.249 C 
ATOM      4  C12 ZIN AC000      -2.252  11.104   2.855  0.00  0.00     0.125 C 
ATOM      5  N13 ZIN AC000      -3.671  10.991   2.491  0.00  0.00    -0.263 NA
ATOM      6  C23 ZIN AC000      -3.823  10.381   1.163  0.00  0.00     0.125 C 
ATOM      7  C24 ZIN AC000      -3.170   8.996   1.163  0.00  0.00     0.249 C 
ENDROOT
BRANCH   1   8
ATOM      8  C8  ZIN AC000      -1.116   7.800   1.484  0.00  0.00     0.239 C 
BRANCH   8   9
ATOM      9  C7  ZIN AC000      -1.145   7.240   0.061  0.00  0.00     0.068 C 
BRANCH   9  10
ATOM     10  C6  ZIN AC000      -0.498   5.879   0.043  0.00  0.00    -0.034 A 
ATOM     11  C5  ZIN AC000      -1.282   4.738   0.048  0.00  0.00     0.018 A 
ATOM     12  C4  ZIN AC000      -0.688   3.497   0.032  0.00  0.00    -0.022 A 
ATOM     13  C3  ZIN AC000      -1.244   2.091   0.032  0.00  0.00     0.144 A 
ATOM     14  C28 ZIN AC000       0.695   3.369   0.011  0.00  0.00     0.043 A 
ATOM     15  C2  ZIN AC000      -0.014   1.209   0.009  0.00  0.00     0.226 A 
ATOM     16  O1  ZIN AC000       0.002  -0.004   0.002  0.00  0.00    -0.273 OA
ATOM     17  N29 ZIN AC000       1.056   2.021   0.003  0.00  0.00    -0.326 N 
ATOM     18  H50 ZIN AC000       1.973   1.707  -0.007  0.00  0.00     0.169 HD
ATOM     19  C27 ZIN AC000       1.479   4.521   0.006  0.00  0.00     0.054 A 
ATOM     20  C25 ZIN AC000       0.881   5.766   0.022  0.00  0.00     0.042 A 
ATOM     21 Cl26 ZIN AC000       1.864   7.197   0.017  0.00  0.00    -0.084 Cl
ENDBRANCH   9  10
ENDBRANCH   8   9
ENDBRANCH   1   8
BRANCH   5  22
ATOM     22  C14 ZIN AC000      -4.303  12.235   2.545  0.00  0.00     0.125 A 
ATOM     23  C22 ZIN AC000      -5.715  12.377   2.226  0.00  0.00     0.024 A 
ATOM     24  C17 ZIN AC000      -6.140  13.713   2.350  0.00  0.00     0.037 A 
ATOM     25  C21 ZIN AC000      -6.671  11.412   1.846  0.00  0.00     0.016 A 
ATOM     26  S16 ZIN AC000      -4.710  14.623   2.841  0.00  0.00     0.013 SA
ATOM     27  C18 ZIN AC000      -7.457  14.069   2.095  0.00  0.00     0.021 A 
ATOM     28  N15 ZIN AC000      -3.653  13.300   2.875  0.00  0.00    -0.198 NA
ATOM     29  C19 ZIN AC000      -8.364  13.102   1.720  0.00  0.00     0.001 A 
ATOM     30  C20 ZIN AC000      -7.958  11.779   1.600  0.00  0.00     0.001 A 
ENDBRANCH   5  22
TORSDOF 4
