REMARK  6 active torsions:
REMARK  status: ('A' for Active; 'I' for Inactive)
REMARK    1  A    between atoms: C6_6  and  O8_7 
REMARK    2  A    between atoms: O8_7  and  C9_8 
REMARK    3  A    between atoms: C9_8  and  C11_10 
REMARK    4  A    between atoms: C11_10  and  O12_11 
REMARK    5  A    between atoms: C11_10  and  C13_12 
REMARK    6  A    between atoms: C11_10  and  C19_18 
ROOT
ATOM      1  C11 ZIN AC000       5.262  -1.825   2.430  0.00  0.00     0.176 C 
ENDROOT
BRANCH   1   2
ATOM      2  C9  ZIN AC000       4.032  -2.011   1.580  0.00  0.00     0.299 C 
ATOM      3  O10 ZIN AC000       3.892  -3.023   0.935  0.00  0.00    -0.261 OA
BRANCH   2   4
ATOM      4  O8  ZIN AC000       3.093  -1.053   1.539  0.00  0.00    -0.312 OA
BRANCH   4   5
ATOM      5  C6  ZIN AC000       1.935  -1.301   0.699  0.00  0.00     0.159 C 
ATOM      6  C5  ZIN AC000       2.164  -0.742  -0.730  0.00  0.00     0.062 C 
ATOM      7  C4  ZIN AC000       0.712  -0.485  -1.202  0.00  0.00     0.239 C 
ATOM      8  N2  ZIN AC000       0.002  -0.004   0.002  0.00  0.00    -0.072 N 
ATOM      9  C1  ZIN AC000      -0.018   1.465   0.010  0.00  0.00     0.272 C 
ATOM     10  C24 ZIN AC000       0.714  -0.497   1.195  0.00  0.00     0.268 C 
ATOM     11  C3  ZIN AC000      -1.374  -0.518   0.000  0.00  0.00     0.272 C 
ENDBRANCH   4   5
ENDBRANCH   2   4
ENDBRANCH   1   2
BRANCH   1  12
ATOM     12  O12 ZIN AC000       5.642  -0.447   2.423  0.00  0.00    -0.374 OA
ATOM     13  H35 ZIN AC000       5.848  -0.101   1.544  0.00  0.00     0.211 HD
ENDBRANCH   1  12
BRANCH   1  14
ATOM     14  C13 ZIN AC000       6.388  -2.659   1.876  0.00  0.00    -0.014 A 
ATOM     15  C18 ZIN AC000       7.243  -2.125   0.930  0.00  0.00     0.011 A 
ATOM     16  C17 ZIN AC000       8.278  -2.889   0.424  0.00  0.00     0.001 A 
ATOM     17  C16 ZIN AC000       8.453  -4.190   0.857  0.00  0.00     0.000 A 
ATOM     18  C15 ZIN AC000       7.594  -4.726   1.799  0.00  0.00     0.001 A 
ATOM     19  C14 ZIN AC000       6.562  -3.960   2.308  0.00  0.00     0.011 A 
ENDBRANCH   1  14
BRANCH   1  20
ATOM     20  C19 ZIN AC000       4.962  -2.263   3.865  0.00  0.00     0.035 C 
ATOM     21  C23 ZIN AC000       3.812  -1.423   4.457  0.00  0.00     0.008 C 
ATOM     22  C22 ZIN AC000       4.162  -1.176   5.935  0.00  0.00     0.001 C 
ATOM     23  C21 ZIN AC000       5.513  -1.876   6.190  0.00  0.00     0.001 C 
ATOM     24  C20 ZIN AC000       6.168  -1.959   4.789  0.00  0.00     0.008 C 
ENDBRANCH   1  20
TORSDOF 6
