REMARK  6 active torsions:
REMARK  status: ('A' for Active; 'I' for Inactive)
REMARK    1  A    between atoms: N2_2  and  C4_4 
REMARK    2  A    between atoms: C4_4  and  C5_5 
REMARK    3  A    between atoms: C5_5  and  O6_6 
REMARK    4  A    between atoms: O6_6  and  C7_7 
REMARK    5  A    between atoms: C12_12  and  C13_13 
REMARK    6  A    between atoms: C13_13  and  C14_14 
ROOT
ATOM      1  C7  ZIN AC000      -1.656  -0.615  -3.754  0.00  0.00     0.075 A 
ATOM      2  C8  ZIN AC000      -2.743   0.212  -3.998  0.00  0.00     0.037 A 
ATOM      3  C9  ZIN AC000      -3.164   0.434  -5.295  0.00  0.00     0.003 A 
ATOM      4  C10 ZIN AC000      -2.503  -0.168  -6.349  0.00  0.00     0.001 A 
ATOM      5  C11 ZIN AC000      -1.420  -0.993  -6.109  0.00  0.00     0.010 A 
ATOM      6  C12 ZIN AC000      -0.991  -1.213  -4.815  0.00  0.00    -0.021 A 
ENDROOT
BRANCH   6   7
ATOM      7  C13 ZIN AC000       0.190  -2.112  -4.554  0.00  0.00     0.080 C 
BRANCH   7   8
ATOM      8  C14 ZIN AC000      -0.296  -3.505  -4.247  0.00  0.00    -0.054 A 
ATOM      9  C19 ZIN AC000      -0.471  -4.417  -5.270  0.00  0.00     0.007 A 
ATOM     10  C18 ZIN AC000      -0.913  -5.696  -4.988  0.00  0.00     0.001 A 
ATOM     11  C17 ZIN AC000      -1.190  -6.059  -3.683  0.00  0.00     0.000 A 
ATOM     12  C16 ZIN AC000      -1.020  -5.145  -2.660  0.00  0.00     0.001 A 
ATOM     13  C15 ZIN AC000      -0.574  -3.868  -2.942  0.00  0.00     0.007 A 
ENDBRANCH   7   8
ENDBRANCH   6   7
BRANCH   1  14
ATOM     14  O6  ZIN AC000      -1.239  -0.834  -2.479  0.00  0.00    -0.349 OA
BRANCH  14  15
ATOM     15  C5  ZIN AC000      -1.971  -0.185  -1.437  0.00  0.00     0.206 C 
BRANCH  15  16
ATOM     16  C4  ZIN AC000      -1.360  -0.549  -0.083  0.00  0.00     0.297 C 
BRANCH  16  17
ATOM     17  N2  ZIN AC000       0.002  -0.004   0.002  0.00  0.00     0.082 N 
ATOM     18  C1  ZIN AC000      -0.018   1.465   0.010  0.00  0.00     0.309 C 
ATOM     19  C3  ZIN AC000       0.706  -0.527   1.180  0.00  0.00     0.309 C 
ENDBRANCH  16  17
ENDBRANCH  15  16
ENDBRANCH  14  15
ENDBRANCH   1  14
TORSDOF 6
