REMARK  12 active torsions:
REMARK  status: ('A' for Active; 'I' for Inactive)
REMARK    1  A    between atoms: C2_2  and  C3_3 
REMARK    2  A    between atoms: C3_3  and  N4_4 
REMARK    3  A    between atoms: N4_4  and  C7_7 
REMARK    4  A    between atoms: C7_7  and  C8_8 
REMARK    5  A    between atoms: C8_8  and  O10_9 
REMARK    6  A    between atoms: C8_8  and  C11_10 
REMARK    7  A    between atoms: C11_10  and  O12_11 
REMARK    8  A    between atoms: O12_11  and  C13_12 
REMARK    9  A    between atoms: C18_17  and  C19_18 
REMARK   10  A    between atoms: C19_18  and  C21_20 
REMARK   11  A    between atoms: C21_20  and  C22_21 
REMARK   12  A    between atoms: C22_21  and  C23_22 
ROOT
ATOM      1  C13 ZIN AC000       2.990  -6.537   4.618  0.00  0.00     0.082 A 
ATOM      2  C14 ZIN AC000       3.484  -5.789   5.676  0.00  0.00     0.038 A 
ATOM      3  C15 ZIN AC000       4.131  -6.414   6.724  0.00  0.00     0.003 A 
ATOM      4  C16 ZIN AC000       4.293  -7.790   6.729  0.00  0.00     0.001 A 
ATOM      5  C17 ZIN AC000       3.810  -8.552   5.688  0.00  0.00     0.018 A 
ATOM      6  C18 ZIN AC000       3.147  -7.934   4.621  0.00  0.00     0.043 A 
ENDROOT
BRANCH   1   7
ATOM      7  O12 ZIN AC000       2.354  -5.925   3.589  0.00  0.00    -0.348 OA
BRANCH   7   8
ATOM      8  C11 ZIN AC000       2.233  -4.503   3.655  0.00  0.00     0.209 C 
BRANCH   8   9
ATOM      9  C8  ZIN AC000       1.493  -3.996   2.415  0.00  0.00     0.168 C 
BRANCH   9  10
ATOM     10  C7  ZIN AC000       1.472  -2.466   2.424  0.00  0.00     0.265 C 
BRANCH  10  11
ATOM     11  N4  ZIN AC000       0.762  -1.980   1.234  0.00  0.00    -0.073 N 
ATOM     12  H5  ZIN AC000      -0.185  -2.329   1.241  0.00  0.00     0.277 HD
ATOM     13  H6  ZIN AC000       1.234  -2.305   0.403  0.00  0.00     0.277 HD
BRANCH  11  14
ATOM     14  C3  ZIN AC000       0.742  -0.511   1.242  0.00  0.00     0.232 C 
BRANCH  14  15
ATOM     15  C2  ZIN AC000       0.002  -0.004   0.002  0.00  0.00     0.023 C 
ATOM     16  C1  ZIN AC000      -0.019   1.526   0.010  0.00  0.00     0.007 C 
ENDBRANCH  14  15
ENDBRANCH  11  14
ENDBRANCH  10  11
ENDBRANCH   9  10
BRANCH   9  17
ATOM     17  O10 ZIN AC000       0.153  -4.491   2.425  0.00  0.00    -0.392 OA
ATOM     18  H38 ZIN AC000      -0.362  -4.217   3.197  0.00  0.00     0.210 HD
ENDBRANCH   9  17
ENDBRANCH   8   9
ENDBRANCH   7   8
ENDBRANCH   1   7
BRANCH   6  19
ATOM     19  C19 ZIN AC000       2.628  -8.738   3.508  0.00  0.00     0.162 C 
ATOM     20  O20 ZIN AC000       2.054  -8.198   2.586  0.00  0.00    -0.292 OA
BRANCH  19  21
ATOM     21  C21 ZIN AC000       2.808 -10.234   3.512  0.00  0.00     0.088 C 
BRANCH  21  22
ATOM     22  C22 ZIN AC000       2.181 -10.826   2.248  0.00  0.00     0.046 C 
BRANCH  22  23
ATOM     23  C23 ZIN AC000       2.361 -12.322   2.252  0.00  0.00    -0.058 A 
ATOM     24  C28 ZIN AC000       1.401 -13.133   2.829  0.00  0.00     0.007 A 
ATOM     25  C27 ZIN AC000       1.564 -14.505   2.828  0.00  0.00     0.001 A 
ATOM     26  C26 ZIN AC000       2.691 -15.067   2.259  0.00  0.00     0.000 A 
ATOM     27  C25 ZIN AC000       3.653 -14.257   1.686  0.00  0.00     0.001 A 
ATOM     28  C24 ZIN AC000       3.488 -12.884   1.683  0.00  0.00     0.007 A 
ENDBRANCH  22  23
ENDBRANCH  21  22
ENDBRANCH  19  21
ENDBRANCH   6  19
TORSDOF 12
