REMARK  3 active torsions:
REMARK  status: ('A' for Active; 'I' for Inactive)
REMARK    1  A    between atoms: C2_2  and  O4_4 
REMARK    2  A    between atoms: O4_4  and  C5_5 
REMARK    3  A    between atoms: C10_10  and  C11_11 
ROOT
ATOM      1  C5  <0> d          -0.958  -2.034   0.008  0.00  0.00     0.096 A 
ATOM      2  C6  <0> d           0.327  -2.552   0.059  0.00  0.00     0.038 A 
ATOM      3  C7  <0> d           0.523  -3.920   0.058  0.00  0.00     0.003 A 
ATOM      4  C8  <0> d          -0.559  -4.783   0.005  0.00  0.00     0.001 A 
ATOM      5  C9  <0> d          -1.843  -4.287  -0.047  0.00  0.00     0.021 A 
ATOM      6  C10 <0> d          -2.057  -2.905  -0.040  0.00  0.00     0.074 A 
ENDROOT
BRANCH   1   7
ATOM      7  O4  <0> d          -1.152  -0.691   0.009  0.00  0.00    -0.278 OA
BRANCH   7   8
ATOM      8  C2  <0> d          -1.355  -0.106   1.201  0.00  0.00     0.260 C 
ATOM      9  C1  <0> d          -1.464   1.394   1.295  0.00  0.00     0.126 C 
ATOM     10  O3  <0> d          -1.449  -0.782   2.198  0.00  0.00    -0.265 OA
ENDBRANCH   7   8
ENDBRANCH   1   7
BRANCH   6  11
ATOM     11  C11 <0> d          -3.426  -2.367  -0.094  0.00  0.00     0.212 C 
ATOM     12  O12 <0> d          -4.381  -3.130  -0.146  0.00  0.00    -0.644 OA
ATOM     13  O13 <0> d          -3.609  -1.158  -0.088  0.00  0.00    -0.644 OA
ENDBRANCH   6  11
TORSDOF 3
