REMARK  16 active torsions:
REMARK  status: ('A' for Active; 'I' for Inactive)
REMARK    1  A    between atoms: C2_2  and  C3_3 
REMARK    2  A    between atoms: C3_3  and  C4_4 
REMARK    3  A    between atoms: C4_4  and  C5_5 
REMARK    4  A    between atoms: C5_5  and  C6_6 
REMARK    5  A    between atoms: C6_6  and  C7_7 
REMARK    6  A    between atoms: C7_7  and  C8_8 
REMARK    7  A    between atoms: C8_8  and  C9_9 
REMARK    8  A    between atoms: C9_9  and  C10_10 
REMARK    9  A    between atoms: C10_10  and  C11_11 
REMARK   10  A    between atoms: C11_11  and  C12_12 
REMARK   11  A    between atoms: C12_12  and  C13_13 
REMARK   12  A    between atoms: C13_13  and  C14_14 
REMARK   13  A    between atoms: C14_14  and  C15_15 
REMARK   14  A    between atoms: C15_15  and  C16_16 
REMARK   15  A    between atoms: C16_16  and  C17_17 
REMARK   16  A    between atoms: C17_17  and  C18_18 
ROOT
ATOM      1  C10 <0> d           2.950  -8.097  -5.067  0.00  0.00     0.000 C 
ENDROOT
BRANCH   1   2
ATOM      2  C9  <0> d           2.929  -6.567  -5.058  0.00  0.00     0.000 C 
BRANCH   2   3
ATOM      3  C8  <0> d           2.213  -6.074  -3.800  0.00  0.00     0.000 C 
BRANCH   3   4
ATOM      4  C7  <0> d           2.192  -4.544  -3.791  0.00  0.00     0.000 C 
BRANCH   4   5
ATOM      5  C6  <0> d           1.476  -4.051  -2.532  0.00  0.00     0.000 C 
BRANCH   5   6
ATOM      6  C5  <0> d           1.455  -2.521  -2.524  0.00  0.00     0.000 C 
BRANCH   6   7
ATOM      7  C4  <0> d           0.739  -2.027  -1.265  0.00  0.00     0.000 C 
BRANCH   7   8
ATOM      8  C3  <0> d           0.718  -0.497  -1.257  0.00  0.00    -0.000 C 
BRANCH   8   9
ATOM      9  C2  <0> d           0.002  -0.004   0.002  0.00  0.00    -0.005 C 
ATOM     10  C1  <0> d          -0.019   1.526   0.010  0.00  0.00     0.005 C 
ENDBRANCH   8   9
ENDBRANCH   7   8
ENDBRANCH   6   7
ENDBRANCH   5   6
ENDBRANCH   4   5
ENDBRANCH   3   4
ENDBRANCH   2   3
ENDBRANCH   1   2
BRANCH   1  11
ATOM     11  C11 <0> d           3.666  -8.591  -6.326  0.00  0.00     0.000 C 
BRANCH  11  12
ATOM     12  C12 <0> d           3.687 -10.120  -6.334  0.00  0.00     0.000 C 
BRANCH  12  13
ATOM     13  C13 <0> d           4.403 -10.614  -7.593  0.00  0.00     0.000 C 
BRANCH  13  14
ATOM     14  C14 <0> d           4.423 -12.144  -7.601  0.00  0.00     0.000 C 
BRANCH  14  15
ATOM     15  C15 <0> d           5.139 -12.637  -8.860  0.00  0.00     0.001 C 
BRANCH  15  16
ATOM     16  C16 <0> d           5.160 -14.167  -8.868  0.00  0.00     0.010 C 
BRANCH  16  17
ATOM     17  C17 <0> d           5.876 -14.660 -10.127  0.00  0.00     0.113 C 
BRANCH  17  18
ATOM     18  C18 <0> d           5.897 -16.167 -10.136  0.00  0.00     0.172 C 
ATOM     19  O19 <0> d           5.386 -16.789  -9.220  0.00  0.00    -0.648 OA
ATOM     20  O20 <0> d           6.424 -16.765 -11.058  0.00  0.00    -0.648 OA
ENDBRANCH  17  18
ENDBRANCH  16  17
ENDBRANCH  15  16
ENDBRANCH  14  15
ENDBRANCH  13  14
ENDBRANCH  12  13
ENDBRANCH  11  12
ENDBRANCH   1  11
TORSDOF 16
