REMARK  3 active torsions:
REMARK  status: ('A' for Active; 'I' for Inactive)
REMARK    1  A    between atoms: N2_2  and  C5_5 
REMARK    2  A    between atoms: C5_5  and  C6_6 
REMARK    3  A    between atoms: C6_6  and  O7_7 
ROOT
ATOM      1  C1  <0> d           0.535   1.328  -0.008  0.00  0.00     0.271 C 
ATOM      2  N2  <0> d           0.020  -0.047   0.049  0.00  0.00    -0.077 N 
ATOM      3  C3  <0> d           0.508  -0.703   1.269  0.00  0.00     0.271 C 
ATOM      4  C4  <0> d          -1.449  -0.018   0.062  0.00  0.00     0.271 C 
ENDROOT
BRANCH   2   5
ATOM      5  C5  <0> d           0.484  -0.793  -1.128  0.00  0.00     0.262 C 
BRANCH   5   6
ATOM      6  C6  <0> d           2.011  -0.722  -1.207  0.00  0.00     0.192 C 
BRANCH   6   7
ATOM      7  O7  <0> d           2.578  -1.450  -0.116  0.00  0.00    -0.399 OA
ATOM      8  H21 <0> d           3.545  -1.448  -0.102  0.00  0.00     0.209 HD
ENDBRANCH   6   7
ENDBRANCH   5   6
ENDBRANCH   2   5
TORSDOF 3
