REMARK  9 active torsions:
REMARK  status: ('A' for Active; 'I' for Inactive)
REMARK    1  A    between atoms: C2_2  and  C4_4 
REMARK    2  A    between atoms: C2_2  and  C6_6 
REMARK    3  A    between atoms: C4_4  and  O5_5 
REMARK    4  A    between atoms: C6_6  and  O8_7 
REMARK    5  A    between atoms: C6_6  and  C9_8 
REMARK       I    between atoms: C9_8  and  N11_10 
REMARK    6  A    between atoms: N11_10  and  C12_11 
REMARK    7  A    between atoms: C12_11  and  C13_12 
REMARK    8  A    between atoms: C13_12  and  C14_13 
REMARK    9  A    between atoms: C14_13  and  O15_14 
ROOT
ATOM      1  C6  ZIN AC000       0.794  -0.418  -1.208  0.00  0.00     0.219 C 
ENDROOT
BRANCH   1   2
ATOM      2  C2  ZIN AC000      -0.063   0.156  -0.079  0.00  0.00     0.008 C 
ATOM      3  C1  ZIN AC000       0.438  -0.378   1.265  0.00  0.00     0.020 C 
ATOM      4  C3  ZIN AC000      -1.521  -0.262  -0.282  0.00  0.00     0.020 C 
BRANCH   2   5
ATOM      5  C4  ZIN AC000       0.035   1.683  -0.089  0.00  0.00     0.175 C 
BRANCH   5   6
ATOM      6  O5  ZIN AC000      -0.766   2.219   0.966  0.00  0.00    -0.400 OA
ATOM      7  H24 ZIN AC000      -0.751   3.185   1.020  0.00  0.00     0.209 HD
ENDBRANCH   5   6
ENDBRANCH   2   5
ENDBRANCH   1   2
BRANCH   1   8
ATOM      8  O8  ZIN AC000       0.246  -0.027  -2.468  0.00  0.00    -0.385 OA
ATOM      9  H25 ZIN AC000       0.205   0.930  -2.599  0.00  0.00     0.210 HD
ENDBRANCH   1   8
BRANCH   1  10
ATOM     10  C9  ZIN AC000       2.201   0.108  -1.087  0.00  0.00     0.247 C 
ATOM     11  O10 ZIN AC000       2.635   0.875  -1.921  0.00  0.00    -0.271 OA
ATOM     12  N11 ZIN AC000       2.977  -0.273  -0.053  0.00  0.00    -0.359 N 
ATOM     13  H26 ZIN AC000       2.654  -0.935   0.577  0.00  0.00     0.162 HD
BRANCH  12  14
ATOM     14  C12 ZIN AC000       4.309   0.312   0.118  0.00  0.00     0.125 C 
BRANCH  14  15
ATOM     15  C13 ZIN AC000       4.975  -0.289   1.357  0.00  0.00     0.046 C 
BRANCH  15  16
ATOM     16  C14 ZIN AC000       6.366   0.323   1.536  0.00  0.00     0.165 C 
BRANCH  16  17
ATOM     17  O15 ZIN AC000       6.988  -0.238   2.694  0.00  0.00    -0.401 OA
ATOM     18  H33 ZIN AC000       7.875   0.104   2.869  0.00  0.00     0.209 HD
ENDBRANCH  16  17
ENDBRANCH  15  16
ENDBRANCH  14  15
ENDBRANCH  12  14
ENDBRANCH   1  10
TORSDOF 9
