REMARK  4 active torsions:
REMARK  status: ('A' for Active; 'I' for Inactive)
REMARK    1  A    between atoms: C2_2  and  C4_4 
REMARK    2  A    between atoms: C4_4  and  C5_5 
REMARK    3  A    between atoms: C5_5  and  C6_6 
REMARK    4  A    between atoms: C6_6  and  O7_7 
ROOT
ATOM      1  C4  <0> d          -1.330   1.951   0.019  0.00  0.00     0.115 C 
ENDROOT
BRANCH   1   2
ATOM      2  C2  <0> d          -0.015   1.215   0.009  0.00  0.00     0.172 C 
ATOM      3  O1  <0> d           0.002  -0.004   0.002  0.00  0.00    -0.648 OA
ATOM      4  O3  <0> d           1.033   1.839   0.002  0.00  0.00    -0.648 OA
ENDBRANCH   1   2
BRANCH   1   5
ATOM      5  C5  <0> d          -2.479   0.941   0.019  0.00  0.00     0.036 C 
BRANCH   5   6
ATOM      6  C6  <0> d          -3.814   1.688   0.029  0.00  0.00     0.164 C 
BRANCH   6   7
ATOM      7  O7  <0> d          -4.888   0.744   0.029  0.00  0.00    -0.401 OA
ATOM      8  H14 <0> d          -5.766   1.148   0.036  0.00  0.00     0.209 HD
ENDBRANCH   6   7
ENDBRANCH   5   6
ENDBRANCH   1   5
TORSDOF 4
