REMARK  3 active torsions:
REMARK  status: ('A' for Active; 'I' for Inactive)
REMARK    1  A    between atoms: C2_2  and  C4_4 
REMARK    2  A    between atoms: C8_8  and  C9_9 
REMARK    3  A    between atoms: C12_12  and  O13_13 
ROOT
ATOM      1  C4  <0> d          -1.412  -0.526   0.013  0.00  0.00    -0.021 A 
ATOM      2  C5  <0> d          -2.259  -0.205   1.056  0.00  0.00     0.010 A 
ATOM      3  C6  <0> d          -3.557  -0.683   1.066  0.00  0.00     0.001 A 
ATOM      4  C7  <0> d          -4.009  -1.483   0.033  0.00  0.00     0.010 A 
ATOM      5  C8  <0> d          -3.166  -1.806  -1.012  0.00  0.00    -0.021 A 
ATOM      6  C12 <0> d          -1.865  -1.324  -1.028  0.00  0.00     0.079 A 
ENDROOT
BRANCH   1   7
ATOM      7  C2  <0> d           0.002  -0.004   0.002  0.00  0.00     0.013 C 
ATOM      8  C1  <0> d          -0.019   1.526   0.010  0.00  0.00     0.015 C 
ATOM      9  C3  <0> d           0.742  -0.511   1.242  0.00  0.00     0.015 C 
ENDBRANCH   1   7
BRANCH   6  10
ATOM     10  O13 <0> d          -1.034  -1.641  -2.054  0.00  0.00    -0.360 OA
ATOM     11  H31 <0> d          -1.064  -1.016  -2.792  0.00  0.00     0.217 HD
ENDBRANCH   6  10
BRANCH   5  12
ATOM     12  C9  <0> d          -3.660  -2.678  -2.138  0.00  0.00     0.013 C 
ATOM     13  C10 <0> d          -4.093  -4.035  -1.579  0.00  0.00     0.015 C 
ATOM     14  C11 <0> d          -4.851  -2.004  -2.820  0.00  0.00     0.015 C 
ENDBRANCH   5  12
TORSDOF 3
