REMARK  2 active torsions:
REMARK  status: ('A' for Active; 'I' for Inactive)
REMARK    1  A    between atoms: C7_6  and  N8_7 
REMARK    2  A    between atoms: C23_22  and  C24_23 
ROOT
ATOM      1  C1  ZIN AC000       0.033   1.891   0.317  0.00  0.00     0.035 C 
ATOM      2  C2  ZIN AC000       0.052   0.371   0.142  0.00  0.00     0.110 C 
ATOM      3  C4  ZIN AC000      -1.385  -0.153   0.077  0.00  0.00     0.201 C 
ATOM      4  O5  ZIN AC000      -2.012   0.067   1.347  0.00  0.00    -0.345 OA
ATOM      5  C6  ZIN AC000      -1.369  -0.463   2.425  0.00  0.00     0.121 A 
ATOM      6  C7  ZIN AC000      -2.089  -0.835   3.551  0.00  0.00     0.086 A 
ATOM      7  C16 ZIN AC000      -1.438  -1.383   4.658  0.00  0.00     0.141 A 
ATOM      8  F17 ZIN AC000      -2.150  -1.740   5.749  0.00  0.00    -0.204 F 
ATOM      9  C18 ZIN AC000      -0.083  -1.560   4.641  0.00  0.00     0.062 A 
ATOM     10  C19 ZIN AC000       0.656  -1.189   3.514  0.00  0.00     0.048 A 
ATOM     11  C20 ZIN AC000       0.015  -0.628   2.396  0.00  0.00     0.085 A 
ATOM     12  N21 ZIN AC000       0.745  -0.245   1.284  0.00  0.00    -0.346 N 
ATOM     13  C22 ZIN AC000       2.074  -0.415   1.212  0.00  0.00     0.114 A 
ATOM     14  C23 ZIN AC000       2.811  -0.961   2.244  0.00  0.00     0.107 A 
ATOM     15  C27 ZIN AC000       2.116  -1.377   3.474  0.00  0.00     0.203 A 
ATOM     16  O28 ZIN AC000       2.722  -1.856   4.417  0.00  0.00    -0.286 OA
ENDROOT
BRANCH   6  17
ATOM     17  N8  ZIN AC000      -3.474  -0.661   3.577  0.00  0.00    -0.275 NA
ATOM     18  C15 ZIN AC000      -4.165  -1.954   3.680  0.00  0.00     0.123 C 
ATOM     19  C14 ZIN AC000      -5.678  -1.725   3.645  0.00  0.00     0.249 C 
ATOM     20  N11 ZIN AC000      -6.067  -0.853   4.762  0.00  0.00    -0.073 N 
ATOM     21  C10 ZIN AC000      -5.387   0.443   4.632  0.00  0.00     0.249 C 
ATOM     22  H12 ZIN AC000      -5.802  -1.285   5.634  0.00  0.00     0.279 HD
ATOM     23  C13 ZIN AC000      -7.521  -0.647   4.739  0.00  0.00     0.269 C 
ATOM     24  C9  ZIN AC000      -3.872   0.232   4.675  0.00  0.00     0.123 C 
ENDBRANCH   6  17
BRANCH  14  25
ATOM     25  C24 ZIN AC000       4.262  -1.123   2.117  0.00  0.00     0.214 C 
ATOM     26  O25 ZIN AC000       4.830  -0.774   1.091  0.00  0.00    -0.644 OA
ATOM     27  O26 ZIN AC000       4.907  -1.609   3.038  0.00  0.00    -0.644 OA
ENDBRANCH  14  25
TORSDOF 2
