REMARK  2 active torsions:
REMARK  status: ('A' for Active; 'I' for Inactive)
REMARK       I    between atoms: C2_2  and  N4_4 
REMARK    1  A    between atoms: N4_4  and  C5_5 
REMARK    2  A    between atoms: C8_8  and  O9_9 
ROOT
ATOM      1  C5  ZIN AC000      -1.081  -2.090   0.092  0.00  0.00     0.034 A 
ATOM      2  C6  ZIN AC000       0.155  -2.716   0.178  0.00  0.00     0.032 A 
ATOM      3  C7  ZIN AC000       0.228  -4.093   0.259  0.00  0.00     0.039 A 
ATOM      4  C8  ZIN AC000      -0.934  -4.850   0.255  0.00  0.00     0.065 A 
ATOM      5  C10 ZIN AC000      -2.169  -4.226   0.169  0.00  0.00     0.039 A 
ATOM      6  C11 ZIN AC000      -2.244  -2.849   0.093  0.00  0.00     0.032 A 
ENDROOT
BRANCH   1   7
ATOM      7  N4  ZIN AC000      -1.156  -0.694   0.009  0.00  0.00    -0.328 N 
ATOM      8  C2  ZIN AC000      -2.169  -0.037   0.608  0.00  0.00     0.218 C 
ATOM      9  C1  ZIN AC000      -2.194   1.470   0.609  0.00  0.00     0.117 C 
ATOM     10  O3  ZIN AC000      -3.061  -0.658   1.145  0.00  0.00    -0.274 OA
ATOM     11  H15 ZIN AC000      -0.478  -0.200  -0.478  0.00  0.00     0.169 HD
ENDBRANCH   1   7
BRANCH   4  12
ATOM     12  O9  ZIN AC000      -0.861  -6.206   0.334  0.00  0.00    -0.361 OA
ATOM     13  H18 ZIN AC000      -0.876  -6.548   1.239  0.00  0.00     0.217 HD
ENDBRANCH   4  12
TORSDOF 2
