REMARK  4 active torsions:
REMARK  status: ('A' for Active; 'I' for Inactive)
REMARK    1  A    between atoms: C2_2  and  C3_3 
REMARK    2  A    between atoms: C3_3  and  N4_4 
REMARK    3  A    between atoms: C12_12  and  O13_13 
REMARK    4  A    between atoms: C22_21  and  O23_22 
ROOT
ATOM      1  N4  ZIN AC000       1.368  -1.678   1.115  0.00  0.00     0.099 N 
ATOM      2  C5  ZIN AC000       0.347  -2.723   0.976  0.00  0.00     0.275 C 
ATOM      3  C6  ZIN AC000       0.345  -3.619   2.221  0.00  0.00     0.051 C 
ATOM      4  C7  ZIN AC000       1.745  -4.204   2.397  0.00  0.00     0.058 C 
ATOM      5  C8  ZIN AC000       2.142  -4.955   1.151  0.00  0.00    -0.001 A 
ATOM      6  C9  ZIN AC000       2.753  -4.432   0.034  0.00  0.00    -0.046 A 
ATOM      7  C10 ZIN AC000       3.005  -5.327  -0.991  0.00  0.00     0.011 A 
ATOM      8  C11 ZIN AC000       2.701  -6.670  -0.836  0.00  0.00     0.040 A 
ATOM      9  C12 ZIN AC000       2.157  -7.199   0.332  0.00  0.00     0.099 A 
ATOM     10  C14 ZIN AC000       1.888  -6.302   1.372  0.00  0.00     0.110 A 
ATOM     11  O15 ZIN AC000       1.440  -6.493   2.631  0.00  0.00    -0.334 OA
ATOM     12  C16 ZIN AC000       1.769  -5.319   3.433  0.00  0.00     0.214 C 
ATOM     13  C18 ZIN AC000       3.132  -5.545   4.017  0.00  0.00     0.157 C 
ATOM     14  O19 ZIN AC000       3.390  -6.635   4.470  0.00  0.00    -0.295 OA
ATOM     15  C20 ZIN AC000       4.189  -4.483   4.065  0.00  0.00     0.084 C 
ATOM     16  C21 ZIN AC000       4.183  -3.683   2.760  0.00  0.00     0.049 C 
ATOM     17  C22 ZIN AC000       2.762  -3.084   2.549  0.00  0.00     0.104 C 
ATOM     18  C24 ZIN AC000       2.715  -2.239   1.273  0.00  0.00     0.262 C 
ATOM     19  C26 ZIN AC000       3.129  -2.986   0.016  0.00  0.00     0.078 C 
ENDROOT
BRANCH   1  20
ATOM     20  C3  ZIN AC000       1.317  -0.740  -0.015  0.00  0.00     0.299 C 
BRANCH  20  21
ATOM     21  C2  ZIN AC000       0.002  -0.004   0.002  0.00  0.00    -0.007 C 
ATOM     22  C1  ZIN AC000      -0.016   1.306   0.009  0.00  0.00     0.008 C 
ENDBRANCH  20  21
ENDBRANCH   1  20
BRANCH  17  23
ATOM     23  O23 ZIN AC000       2.414  -2.272   3.672  0.00  0.00    -0.386 OA
ATOM     24  H43 ZIN AC000       3.016  -1.530   3.822  0.00  0.00     0.210 HD
ENDBRANCH  17  23
BRANCH   9  25
ATOM     25  O13 ZIN AC000       1.899  -8.528   0.457  0.00  0.00    -0.358 OA
ATOM     26  H38 ZIN AC000       2.638  -9.041   0.813  0.00  0.00     0.217 HD
ENDBRANCH   9  25
TORSDOF 4
