REMARK  7 active torsions:
REMARK  status: ('A' for Active; 'I' for Inactive)
REMARK    1  A    between atoms: O1_1  and  C2_2 
REMARK    2  A    between atoms: C2_2  and  C3_3 
REMARK    3  A    between atoms: C3_3  and  O4_4 
REMARK    4  A    between atoms: O4_4  and  C5_5 
REMARK    5  A    between atoms: C5_5  and  C6_6 
REMARK    6  A    between atoms: C6_6  and  N7_7 
REMARK    7  A    between atoms: N11_11  and  C12_12 
ROOT
ATOM      1  C12 <0> d          -3.415  -3.129  -7.130  0.00  0.00     0.138 C 
ATOM      2  N13 <0> d          -3.335  -4.382  -6.946  0.00  0.00    -0.229 NA
ATOM      3  C14 <0> d          -3.566  -5.421  -7.787  0.00  0.00     0.076 A 
ATOM      4  C15 <0> d          -2.639  -6.470  -7.827  0.00  0.00     0.033 A 
ATOM      5  C16 <0> d          -2.840  -7.546  -8.668  0.00  0.00     0.002 A 
ATOM      6  C17 <0> d          -3.958  -7.599  -9.479  0.00  0.00     0.002 A 
ATOM      7  C18 <0> d          -4.883  -6.569  -9.450  0.00  0.00     0.021 A 
ATOM      8  C19 <0> d          -4.692  -5.484  -8.612  0.00  0.00     0.034 A 
ATOM      9  S20 <0> d          -5.880  -4.183  -8.596  0.00  0.00    -0.087 SA
ATOM     10  C21 <0> d          -4.928  -2.785  -9.093  0.00  0.00     0.019 A 
ATOM     11  C22 <0> d          -5.277  -2.080 -10.233  0.00  0.00     0.020 A 
ATOM     12  C23 <0> d          -4.533  -0.981 -10.622  0.00  0.00     0.001 A 
ATOM     13  C24 <0> d          -3.440  -0.582  -9.872  0.00  0.00     0.001 A 
ATOM     14  C25 <0> d          -3.082  -1.277  -8.735  0.00  0.00     0.017 A 
ATOM     15  C26 <0> d          -3.825  -2.393  -8.328  0.00  0.00     0.027 A 
ENDROOT
BRANCH   1  16
ATOM     16  N11 <0> d          -3.073  -2.350  -6.047  0.00  0.00    -0.362 N 
ATOM     17  C10 <0> d          -3.260  -0.892  -6.075  0.00  0.00     0.152 C 
ATOM     18  C9  <0> d          -4.015  -0.474  -4.809  0.00  0.00     0.254 C 
ATOM     19  N7  <0> d          -3.299  -0.971  -3.627  0.00  0.00    -0.066 N 
ATOM     20  H8  <0> d          -2.346  -0.638  -3.648  0.00  0.00     0.280 HD
ATOM     21  C28 <0> d          -3.302  -2.439  -3.623  0.00  0.00     0.254 C 
ATOM     22  C27 <0> d          -2.510  -2.954  -4.829  0.00  0.00     0.152 C 
BRANCH  19  23
ATOM     23  C6  <0> d          -3.961  -0.478  -2.412  0.00  0.00     0.261 C 
BRANCH  23  24
ATOM     24  C5  <0> d          -3.144  -0.886  -1.185  0.00  0.00     0.195 C 
BRANCH  24  25
ATOM     25  O4  <0> d          -1.876  -0.228  -1.216  0.00  0.00    -0.387 OA
BRANCH  25  26
ATOM     26  C3  <0> d          -1.031  -0.542  -0.108  0.00  0.00     0.193 C 
BRANCH  26  27
ATOM     27  C2  <0> d           0.293   0.213  -0.246  0.00  0.00     0.190 C 
BRANCH  27  28
ATOM     28  O1  <0> d           0.051   1.618  -0.151  0.00  0.00    -0.399 OA
ATOM     29  H29 <0> d           0.848   2.160  -0.230  0.00  0.00     0.209 HD
ENDBRANCH  27  28
ENDBRANCH  26  27
ENDBRANCH  25  26
ENDBRANCH  24  25
ENDBRANCH  23  24
ENDBRANCH  19  23
ENDBRANCH   1  16
TORSDOF 7
