REMARK  9 active torsions:
REMARK  status: ('A' for Active; 'I' for Inactive)
REMARK    1  A    between atoms: C2_2  and  C4_4 
REMARK    2  A    between atoms: C4_4  and  O6_6 
REMARK    3  A    between atoms: O6_6  and  C7_7 
REMARK    4  A    between atoms: C7_7  and  O10_9 
REMARK    5  A    between atoms: O10_9  and  C11_10 
REMARK       I    between atoms: C11_10  and  N13_12 
REMARK    6  A    between atoms: N13_12  and  C14_13 
REMARK    7  A    between atoms: C14_13  and  C15_14 
REMARK    8  A    between atoms: C15_14  and  C16_15 
REMARK    9  A    between atoms: C16_15  and  C17_16 
ROOT
ATOM      1  C11 ZIN AC000      -3.176  -0.949  -1.873  0.00  0.00     0.362 C 
ATOM      2  O12 ZIN AC000      -2.676  -0.148  -1.109  0.00  0.00    -0.238 OA
ATOM      3  N13 ZIN AC000      -3.649  -0.538  -3.066  0.00  0.00    -0.336 N 
ATOM      4  H35 ZIN AC000      -4.048  -1.178  -3.676  0.00  0.00     0.164 HD
ENDROOT
BRANCH   3   5
ATOM      5  C14 ZIN AC000      -3.560   0.875  -3.442  0.00  0.00     0.135 C 
BRANCH   5   6
ATOM      6  C15 ZIN AC000      -4.271   1.093  -4.779  0.00  0.00    -0.015 C 
ATOM      7  C24 ZIN AC000      -5.764   0.800  -4.615  0.00  0.00     0.012 C 
ATOM      8  C23 ZIN AC000      -6.476   1.019  -5.952  0.00  0.00     0.001 C 
ATOM      9  C22 ZIN AC000      -5.884   0.079  -7.004  0.00  0.00     0.000 C 
ATOM     10  C21 ZIN AC000      -4.391   0.372  -7.168  0.00  0.00     0.001 C 
ATOM     11  C20 ZIN AC000      -3.679   0.154  -5.831  0.00  0.00     0.012 C 
BRANCH   6  12
ATOM     12  C16 ZIN AC000      -4.082   2.544  -5.226  0.00  0.00     0.124 C 
BRANCH  12  13
ATOM     13  C17 ZIN AC000      -2.611   2.840  -5.363  0.00  0.00     0.173 C 
ATOM     14  O18 ZIN AC000      -1.792   1.957  -5.176  0.00  0.00    -0.648 OA
ATOM     15  O19 ZIN AC000      -2.240   3.963  -5.660  0.00  0.00    -0.648 OA
ENDBRANCH  12  13
ENDBRANCH   6  12
ENDBRANCH   5   6
ENDBRANCH   3   5
BRANCH   1  16
ATOM     16  O10 ZIN AC000      -3.258  -2.248  -1.528  0.00  0.00    -0.272 OA
BRANCH  16  17
ATOM     17  C7  ZIN AC000      -2.619  -2.642  -0.285  0.00  0.00     0.276 C 
ATOM     18  C9  ZIN AC000      -1.137  -2.261  -0.331  0.00  0.00     0.072 C 
BRANCH  17  19
ATOM     19  O6  ZIN AC000      -3.259  -1.960   0.826  0.00  0.00    -0.289 OA
BRANCH  19  20
ATOM     20  C4  ZIN AC000      -4.478  -2.394   1.185  0.00  0.00     0.264 C 
ATOM     21  O5  ZIN AC000      -5.030  -3.250   0.536  0.00  0.00    -0.265 OA
BRANCH  20  22
ATOM     22  C2  ZIN AC000      -5.157  -1.813   2.398  0.00  0.00     0.077 C 
ATOM     23  C1  ZIN AC000      -6.523  -2.475   2.585  0.00  0.00     0.020 C 
ATOM     24  C3  ZIN AC000      -4.294  -2.067   3.636  0.00  0.00     0.020 C 
ENDBRANCH  20  22
ENDBRANCH  19  20
ENDBRANCH  17  19
ENDBRANCH  16  17
ENDBRANCH   1  16
TORSDOF 9
