REMARK  5 active torsions:
REMARK  status: ('A' for Active; 'I' for Inactive)
REMARK    1  A    between atoms: O2_2  and  C3_3 
REMARK    2  A    between atoms: C6_6  and  C7_7 
REMARK    3  A    between atoms: C12_12  and  O13_13 
REMARK    4  A    between atoms: C15_15  and  O16_16 
REMARK    5  A    between atoms: C21_21  and  O22_22 
ROOT
ATOM      1  C7  <0> d           2.494  -2.488  -4.365  0.00  0.00     0.090 A 
ATOM      2  C8  <0> d           3.045  -1.706  -5.332  0.00  0.00     0.094 A 
ATOM      3  C9  <0> d           3.679  -2.313  -6.442  0.00  0.00     0.190 A 
ATOM      4  O10 <0> d           4.184  -1.643  -7.328  0.00  0.00    -0.287 OA
ATOM      5  C11 <0> d           3.705  -3.785  -6.487  0.00  0.00     0.081 A 
ATOM      6  C12 <0> d           4.311  -4.470  -7.547  0.00  0.00     0.085 A 
ATOM      7  C14 <0> d           4.315  -5.852  -7.551  0.00  0.00     0.074 A 
ATOM      8  C15 <0> d           3.721  -6.556  -6.509  0.00  0.00     0.071 A 
ATOM      9  C17 <0> d           3.119  -5.884  -5.456  0.00  0.00     0.075 A 
ATOM     10  C18 <0> d           3.105  -4.498  -5.434  0.00  0.00     0.095 A 
ATOM     11  O19 <0> d           2.529  -3.829  -4.413  0.00  0.00    -0.309 OA
ENDROOT
BRANCH   1  12
ATOM     12  C6  <0> d           1.838  -1.837  -3.215  0.00  0.00     0.001 A 
ATOM     13  C5  <0> d           1.785  -0.443  -3.136  0.00  0.00     0.017 A 
ATOM     14  C4  <0> d           1.172   0.164  -2.061  0.00  0.00     0.040 A 
ATOM     15  C3  <0> d           0.606  -0.607  -1.055  0.00  0.00     0.101 A 
ATOM     16  C21 <0> d           0.659  -1.998  -1.125  0.00  0.00     0.099 A 
ATOM     17  C20 <0> d           1.268  -2.613  -2.202  0.00  0.00     0.053 A 
BRANCH  15  18
ATOM     18  O2  <0> d           0.002  -0.004   0.002  0.00  0.00    -0.353 OA
ATOM     19  C1  <0> d          -0.017   1.425   0.010  0.00  0.00     0.210 C 
ENDBRANCH  15  18
BRANCH  16  20
ATOM     20  O22 <0> d           0.104  -2.751  -0.137  0.00  0.00    -0.358 OA
ATOM     21  H34 <0> d           0.713  -2.967   0.582  0.00  0.00     0.217 HD
ENDBRANCH  16  20
ENDBRANCH   1  12
BRANCH   6  22
ATOM     22  O13 <0> d           4.891  -3.781  -8.563  0.00  0.00    -0.360 OA
ATOM     23  H29 <0> d           5.826  -3.581  -8.419  0.00  0.00     0.217 HD
ENDBRANCH   6  22
BRANCH   8  24
ATOM     24  O16 <0> d           3.731  -7.913  -6.523  0.00  0.00    -0.361 OA
ATOM     25  H31 <0> d           4.501  -8.305  -6.089  0.00  0.00     0.217 HD
ENDBRANCH   8  24
TORSDOF 5
