REMARK  8 active torsions:
REMARK  status: ('A' for Active; 'I' for Inactive)
REMARK    1  A    between atoms: N1_1  and  C2_2 
REMARK    2  A    between atoms: N8_8  and  C9_9 
REMARK    3  A    between atoms: C9_9  and  O10_10 
REMARK    4  A    between atoms: O10_10  and  C11_11 
REMARK    5  A    between atoms: C11_11  and  C12_12 
REMARK    6  A    between atoms: C11_11  and  C14_14 
REMARK    7  A    between atoms: C12_12  and  O13_13 
REMARK    8  A    between atoms: C14_14  and  O15_15 
ROOT
ATOM      1  C2  <0> d           0.002  -0.004   0.002  0.00  0.00     0.703 A 
ATOM      2  N3  <0> d          -1.138  -0.658   0.004  0.00  0.00    -0.044 NA
ATOM      3  C4  <0> d          -1.169  -1.996  -0.003  0.00  0.00     0.186 A 
ATOM      4  C5  <0> d           0.031  -2.716  -0.013  0.00  0.00     0.173 A 
ATOM      5  N6  <0> d          -0.291  -4.033  -0.018  0.00  0.00    -0.234 NA
ATOM      6  C7  <0> d          -1.585  -4.160  -0.013  0.00  0.00     0.214 A 
ATOM      7  N8  <0> d          -2.171  -2.927  -0.003  0.00  0.00    -0.301 N 
ATOM      8  C16 <0> d           1.251  -2.000  -0.015  0.00  0.00     0.292 A 
ATOM      9  O17 <0> d           2.320  -2.587  -0.023  0.00  0.00    -0.265 OA
ATOM     10  N18 <0> d           1.202  -0.650  -0.013  0.00  0.00    -0.152 N 
ATOM     11  H31 <0> d           2.026  -0.137  -0.014  0.00  0.00     0.187 HD
ENDROOT
BRANCH   7  12
ATOM     12  C9  <0> d          -3.610  -2.652   0.005  0.00  0.00     0.301 C 
BRANCH  12  13
ATOM     13  O10 <0> d          -4.331  -3.885   0.002  0.00  0.00    -0.362 OA
BRANCH  13  14
ATOM     14  C11 <0> d          -5.751  -3.728   0.009  0.00  0.00     0.170 C 
BRANCH  14  15
ATOM     15  C12 <0> d          -6.265  -3.663  -1.431  0.00  0.00     0.198 C 
BRANCH  15  16
ATOM     16  O13 <0> d          -6.027  -4.915  -2.078  0.00  0.00    -0.398 OA
ATOM     17  H27 <0> d          -6.328  -4.946  -2.996  0.00  0.00     0.209 HD
ENDBRANCH  15  16
ENDBRANCH  14  15
BRANCH  14  18
ATOM     18  C14 <0> d          -6.392  -4.918   0.727  0.00  0.00     0.198 C 
BRANCH  18  19
ATOM     19  O15 <0> d          -6.148  -6.112  -0.020  0.00  0.00    -0.398 OA
ATOM     20  H30 <0> d          -6.527  -6.908   0.377  0.00  0.00     0.209 HD
ENDBRANCH  18  19
ENDBRANCH  14  18
ENDBRANCH  13  14
ENDBRANCH  12  13
ENDBRANCH   7  12
BRANCH   1  21
ATOM     21  N1  <0> d          -0.017   1.368   0.010  0.00  0.00    -0.233 N 
ATOM     22  H19 <0> d           0.817   1.864   0.004  0.00  0.00     0.174 HD
ATOM     23  H20 <0> d          -0.863   1.842   0.016  0.00  0.00     0.174 HD
ENDBRANCH   1  21
TORSDOF 8
