REMARK  7 active torsions:
REMARK  status: ('A' for Active; 'I' for Inactive)
REMARK    1  A    between atoms: O2_2  and  C3_3 
REMARK    2  A    between atoms: C8_8  and  C10_9 
REMARK    3  A    between atoms: C10_9  and  O12_11 
REMARK    4  A    between atoms: C10_9  and  C13_12 
REMARK    5  A    between atoms: C23_21  and  O24_22 
REMARK    6  A    between atoms: N30_28  and  C32_30 
REMARK    7  A    between atoms: C32_30  and  C33_31 
ROOT
ATOM      1  C3  <0> d          -1.050  -0.657   0.657  0.00  0.00     0.094 C 
ATOM      2  C4  <0> d          -1.477   0.131   1.893  0.00  0.00     0.042 C 
ATOM      3  C5  <0> d          -2.926  -0.191   2.251  0.00  0.00     0.016 C 
ATOM      4  C6  <0> d          -3.558  -1.069   1.152  0.00  0.00     0.004 C 
ATOM      5  C7  <0> d          -2.821  -2.395   1.142  0.00  0.00     0.023 C 
ATOM      6  C8  <0> d          -1.325  -2.148   0.884  0.00  0.00     0.058 C 
ATOM      7  C17 <0> d          -5.057  -1.107   1.386  0.00  0.00     0.202 C 
ATOM      8  C19 <0> d          -5.708   0.291   1.417  0.00  0.00     0.073 C 
ATOM      9  C20 <0> d          -4.874   1.380   0.837  0.00  0.00    -0.046 A 
ATOM     10  C21 <0> d          -5.120   2.738   0.922  0.00  0.00     0.011 A 
ATOM     11  C22 <0> d          -4.228   3.642   0.366  0.00  0.00     0.040 A 
ATOM     12  C23 <0> d          -3.044   3.271  -0.271  0.00  0.00     0.099 A 
ATOM     13  C25 <0> d          -2.780   1.899  -0.366  0.00  0.00     0.110 A 
ATOM     14  C26 <0> d          -3.731   1.039   0.144  0.00  0.00    -0.003 A 
ATOM     15  C27 <0> d          -3.337  -0.369  -0.197  0.00  0.00     0.031 C 
ATOM     16  C28 <0> d          -4.110  -1.021  -1.308  0.00  0.00     0.046 C 
ATOM     17  C29 <0> d          -5.580  -1.230  -0.978  0.00  0.00     0.236 C 
ATOM     18  N30 <0> d          -5.797  -1.820   0.338  0.00  0.00    -0.065 N 
ATOM     19  H31 <0> d          -6.808  -1.659   0.551  0.00  0.00     0.280 HD
ATOM     20  C36 <0> d          -1.857  -0.200  -0.558  0.00  0.00     0.178 C 
ATOM     21  O38 <0> d          -1.728   1.203  -0.843  0.00  0.00    -0.338 OA
ENDROOT
BRANCH   6  22
ATOM     22  C10 <0> d          -0.504  -2.671   2.058  0.00  0.00     0.067 C 
ATOM     23  C11 <0> d          -1.241  -2.378   3.366  0.00  0.00     0.047 C 
BRANCH  22  24
ATOM     24  O12 <0> d           0.770  -2.025   2.074  0.00  0.00    -0.389 OA
ATOM     25  H51 <0> d           1.294  -2.168   1.274  0.00  0.00     0.210 HD
ENDBRANCH  22  24
BRANCH  22  26
ATOM     26  C13 <0> d          -0.308  -4.181   1.910  0.00  0.00    -0.020 C 
ATOM     27  C14 <0> d           0.512  -4.469   0.651  0.00  0.00     0.017 C 
ATOM     28  C15 <0> d           0.432  -4.721   3.135  0.00  0.00     0.017 C 
ATOM     29  C16 <0> d          -1.673  -4.864   1.797  0.00  0.00     0.017 C 
ENDBRANCH  22  26
ENDBRANCH   6  22
BRANCH   1  30
ATOM     30  O2  <0> d           0.343  -0.458   0.413  0.00  0.00    -0.382 OA
ATOM     31  C1  <0> d           0.706   0.906   0.189  0.00  0.00     0.202 C 
ENDBRANCH   1  30
BRANCH  18  32
ATOM     32  C32 <0> d          -5.635  -3.268   0.356  0.00  0.00     0.240 C 
BRANCH  32  33
ATOM     33  C33 <0> d          -6.731  -3.914  -0.494  0.00  0.00     0.011 A 
ATOM     34  C35 <0> d          -6.805  -5.442  -0.509  0.00  0.00     0.007 A 
ATOM     35  C34 <0> d          -6.294  -4.689  -1.739  0.00  0.00     0.007 A 
ENDBRANCH  32  33
ENDBRANCH  18  32
BRANCH  12  36
ATOM     36  O24 <0> d          -2.192   4.199  -0.782  0.00  0.00    -0.358 OA
ATOM     37  H65 <0> d          -1.518   4.501  -0.157  0.00  0.00     0.217 HD
ENDBRANCH  12  36
TORSDOF 7
