REMARK  10 active torsions:
REMARK  status: ('A' for Active; 'I' for Inactive)
REMARK    1  A    between atoms: C2_2  and  O3_3 
REMARK    2  A    between atoms: O3_3  and  C4_4 
REMARK    3  A    between atoms: C7_7  and  C8_8 
REMARK    4  A    between atoms: C8_8  and  C9_9 
REMARK    5  A    between atoms: C11_11  and  C12_12 
REMARK    6  A    between atoms: C15_14  and  C17_15 
REMARK    7  A    between atoms: C17_15  and  O18_16 
REMARK    8  A    between atoms: C19_17  and  O21_18 
REMARK    9  A    between atoms: C22_19  and  O24_20 
REMARK   10  A    between atoms: C25_21  and  O27_22 
ROOT
ATOM      1  C9  ZIN AC000       2.412  -6.535   1.102  0.00  0.00    -0.032 A 
ATOM      2  C10 ZIN AC000       3.534  -6.798   1.865  0.00  0.00     0.019 A 
ATOM      3  C11 ZIN AC000       4.696  -7.235   1.258  0.00  0.00    -0.026 A 
ATOM      4  C28 ZIN AC000       4.737  -7.410  -0.113  0.00  0.00     0.011 A 
ATOM      5  C29 ZIN AC000       3.615  -7.148  -0.877  0.00  0.00     0.025 A 
ATOM      6  C30 ZIN AC000       2.450  -6.716  -0.269  0.00  0.00     0.040 A 
ATOM      7 Cl31 ZIN AC000       1.041  -6.387  -1.228  0.00  0.00    -0.084 Cl
ENDROOT
BRANCH   3   8
ATOM      8  C12 ZIN AC000       5.920  -7.520   2.090  0.00  0.00     0.186 C 
ATOM      9  C25 ZIN AC000       6.037  -9.029   2.324  0.00  0.00     0.182 C 
ATOM     10  C22 ZIN AC000       7.314  -9.316   3.119  0.00  0.00     0.181 C 
ATOM     11  C19 ZIN AC000       8.516  -8.751   2.356  0.00  0.00     0.180 C 
ATOM     12  C15 ZIN AC000       8.303  -7.253   2.121  0.00  0.00     0.177 C 
ATOM     13  O14 ZIN AC000       7.083  -7.054   1.404  0.00  0.00    -0.368 OA
BRANCH   9  14
ATOM     14  O27 ZIN AC000       4.902  -9.489   3.061  0.00  0.00    -0.390 OA
ATOM     15  H49 ZIN AC000       4.914 -10.438   3.248  0.00  0.00     0.210 HD
ENDBRANCH   9  14
BRANCH  10  16
ATOM     16  O24 ZIN AC000       7.471 -10.727   3.280  0.00  0.00    -0.390 OA
ATOM     17  H48 ZIN AC000       8.265 -10.981   3.771  0.00  0.00     0.210 HD
ENDBRANCH  10  16
BRANCH  11  18
ATOM     18  O21 ZIN AC000       9.706  -8.950   3.121  0.00  0.00    -0.390 OA
ATOM     19  H47 ZIN AC000       9.903  -9.877   3.308  0.00  0.00     0.210 HD
ENDBRANCH  11  18
BRANCH  12  20
ATOM     20  C17 ZIN AC000       9.471  -6.693   1.307  0.00  0.00     0.198 C 
BRANCH  20  21
ATOM     21  O18 ZIN AC000       9.330  -5.276   1.186  0.00  0.00    -0.398 OA
ATOM     22  H46 ZIN AC000      10.038  -4.852   0.680  0.00  0.00     0.209 HD
ENDBRANCH  20  21
ENDBRANCH  12  20
ENDBRANCH   3   8
BRANCH   1  23
ATOM     23  C8  ZIN AC000       1.144  -6.059   1.764  0.00  0.00     0.078 C 
BRANCH  23  24
ATOM     24  C7  ZIN AC000       1.024  -4.566   1.603  0.00  0.00    -0.054 A 
ATOM     25  C6  ZIN AC000       0.372  -4.041   0.502  0.00  0.00     0.010 A 
ATOM     26  C5  ZIN AC000       0.260  -2.673   0.351  0.00  0.00     0.037 A 
ATOM     27  C4  ZIN AC000       0.802  -1.824   1.306  0.00  0.00     0.068 A 
ATOM     28  C33 ZIN AC000       1.460  -2.353   2.406  0.00  0.00     0.037 A 
ATOM     29  C32 ZIN AC000       1.565  -3.722   2.555  0.00  0.00     0.010 A 
BRANCH  27  30
ATOM     30  O3  ZIN AC000       0.693  -0.477   1.160  0.00  0.00    -0.352 OA
BRANCH  30  31
ATOM     31  C2  ZIN AC000       0.002  -0.004   0.002  0.00  0.00     0.171 C 
ATOM     32  C1  ZIN AC000      -0.019   1.526   0.010  0.00  0.00     0.034 C 
ENDBRANCH  30  31
ENDBRANCH  27  30
ENDBRANCH  23  24
ENDBRANCH   1  23
TORSDOF 10
