REMARK  7 active torsions:
REMARK  status: ('A' for Active; 'I' for Inactive)
REMARK    1  A    between atoms: C2_2  and  C4_3 
REMARK    2  A    between atoms: C2_2  and  C17_16 
REMARK    3  A    between atoms: C6_5  and  C7_6 
REMARK    4  A    between atoms: C17_16  and  O18_17 
REMARK    5  A    between atoms: C17_16  and  C19_18 
REMARK    6  A    between atoms: C17_16  and  C25_24 
REMARK    7  A    between atoms: C19_18  and  N20_19 
ROOT
ATOM      1  C7  ZIN AC000      -4.793   0.727  -0.916  0.00  0.00    -0.007 A 
ATOM      2  C8  ZIN AC000      -4.738   2.121  -0.902  0.00  0.00     0.015 A 
ATOM      3  C9  ZIN AC000      -5.887   2.855  -1.052  0.00  0.00     0.023 A 
ATOM      4  C10 ZIN AC000      -7.113   2.205  -1.220  0.00  0.00     0.044 A 
ATOM      5  C11 ZIN AC000      -8.314   2.970  -1.377  0.00  0.00     0.099 C 
ATOM      6  N12 ZIN AC000      -9.266   3.576  -1.502  0.00  0.00    -0.191 NA
ATOM      7  C13 ZIN AC000      -7.167   0.808  -1.234  0.00  0.00     0.023 A 
ATOM      8  C14 ZIN AC000      -6.016   0.077  -1.090  0.00  0.00     0.015 A 
ENDROOT
BRANCH   1   9
ATOM      9  C6  ZIN AC000      -3.551  -0.065  -0.754  0.00  0.00     0.074 A 
ATOM     10  N5  ZIN AC000      -2.374   0.486  -0.490  0.00  0.00    -0.244 NA
ATOM     11  C4  ZIN AC000      -1.368  -0.309  -0.372  0.00  0.00     0.082 A 
ATOM     12  S16 ZIN AC000      -1.853  -1.931  -0.606  0.00  0.00    -0.084 SA
ATOM     13  C15 ZIN AC000      -3.517  -1.410  -0.862  0.00  0.00     0.084 A 
BRANCH  11  14
ATOM     14  C2  ZIN AC000       0.043   0.130  -0.074  0.00  0.00     0.082 C 
ATOM     15  C1  ZIN AC000       0.996  -0.485  -1.100  0.00  0.00     0.020 C 
BRANCH  14  16
ATOM     16  C17 ZIN AC000       0.436  -0.334   1.330  0.00  0.00     0.115 C 
BRANCH  16  17
ATOM     17  O18 ZIN AC000       0.465  -1.762   1.369  0.00  0.00    -0.382 OA
ATOM     18  H41 ZIN AC000      -0.406  -2.175   1.291  0.00  0.00     0.211 HD
ENDBRANCH  16  17
BRANCH  16  19
ATOM     19  C19 ZIN AC000      -0.587   0.184   2.343  0.00  0.00     0.196 C 
BRANCH  19  20
ATOM     20  N20 ZIN AC000      -0.148  -0.158   3.698  0.00  0.00    -0.259 N 
ATOM     21  N24 ZIN AC000       0.173  -1.437   4.182  0.00  0.00    -0.165 NA
ATOM     22  C23 ZIN AC000       0.516  -1.292   5.435  0.00  0.00     0.256 A 
ATOM     23  N22 ZIN AC000       0.420  -0.005   5.763  0.00  0.00    -0.234 NA
ATOM     24  C21 ZIN AC000       0.022   0.689   4.728  0.00  0.00     0.230 A 
ENDBRANCH  19  20
ENDBRANCH  16  19
BRANCH  16  25
ATOM     25  C25 ZIN AC000       1.800   0.206   1.674  0.00  0.00     0.020 A 
ATOM     26  C31 ZIN AC000       2.023   1.573   1.680  0.00  0.00     0.126 A 
ATOM     27  C30 ZIN AC000       3.275   2.069   2.001  0.00  0.00     0.046 A 
ATOM     28  F32 ZIN AC000       1.016   2.423   1.383  0.00  0.00    -0.205 F 
ATOM     29  C29 ZIN AC000       4.305   1.200   2.305  0.00  0.00     0.045 A 
ATOM     30  C27 ZIN AC000       4.084  -0.167   2.294  0.00  0.00     0.117 A 
ATOM     31  C26 ZIN AC000       2.831  -0.663   1.977  0.00  0.00     0.055 A 
ATOM     32  F28 ZIN AC000       5.092  -1.016   2.591  0.00  0.00    -0.206 F 
ENDBRANCH  16  25
ENDBRANCH  14  16
ENDBRANCH  11  14
ENDBRANCH   1   9
TORSDOF 7
