REMARK  2 active torsions:
REMARK  status: ('A' for Active; 'I' for Inactive)
REMARK    1  A    between atoms: C5_5  and  C6_6 
REMARK    2  A    between atoms: C9_9  and  O10_10 
ROOT
ATOM      1  C1  ZIN AC000      -0.018   1.503   0.010  0.00  0.00     0.048 C 
ATOM      2  C2  ZIN AC000       0.002  -0.004   0.002  0.00  0.00    -0.059 A 
ATOM      3  C3  ZIN AC000       0.006  -0.688  -1.199  0.00  0.00     0.007 A 
ATOM      4  C4  ZIN AC000       0.024  -2.071  -1.210  0.00  0.00     0.011 A 
ATOM      5  C5  ZIN AC000       0.040  -2.772  -0.020  0.00  0.00    -0.022 A 
ATOM      6  C9  ZIN AC000       0.036  -2.088   1.187  0.00  0.00     0.072 A 
ATOM      7  C11 ZIN AC000       0.023  -0.701   1.195  0.00  0.00     0.043 A 
ENDROOT
BRANCH   5   8
ATOM      8  C6  ZIN AC000       0.060  -4.279  -0.033  0.00  0.00     0.013 C 
ATOM      9  C7  ZIN AC000      -1.185  -4.800  -0.753  0.00  0.00     0.015 C 
ATOM     10  C8  ZIN AC000       1.313  -4.765  -0.764  0.00  0.00     0.015 C 
ENDBRANCH   5   8
BRANCH   6  11
ATOM     11  O10 ZIN AC000       0.051  -2.775   2.359  0.00  0.00    -0.360 OA
ATOM     12  H24 ZIN AC000       0.939  -2.962   2.694  0.00  0.00     0.217 HD
ENDBRANCH   6  11
TORSDOF 2
