REMARK  5 active torsions:
REMARK  status: ('A' for Active; 'I' for Inactive)
REMARK    1  A    between atoms: O2_2  and  C3_3 
REMARK    2  A    between atoms: C7_7  and  O8_8 
REMARK    3  A    between atoms: C10_10  and  O11_11 
REMARK    4  A    between atoms: C16_16  and  O17_17 
REMARK    5  A    between atoms: C23_23  and  N25_24 
REMARK       I    between atoms: N25_24  and  C26_25 
ROOT
ATOM      1  C3  <0> d           0.543  -0.607  -1.164  0.00  0.00     0.104 A 
ATOM      2  C4  <0> d           1.123   0.142  -2.180  0.00  0.00     0.047 A 
ATOM      3  C5  <0> d           1.819  -0.489  -3.191  0.00  0.00    -0.041 A 
ATOM      4  C6  <0> d           1.936  -1.875  -3.194  0.00  0.00     0.017 A 
ATOM      5  C7  <0> d           1.359  -2.634  -2.171  0.00  0.00     0.116 A 
ATOM      6  C10 <0> d           0.666  -1.992  -1.153  0.00  0.00     0.136 A 
ATOM      7  C13 <0> d           2.668  -2.561  -4.300  0.00  0.00    -0.014 A 
ATOM      8  C14 <0> d           3.595  -3.503  -3.935  0.00  0.00     0.016 A 
ATOM      9  C15 <0> d           4.438  -4.277  -4.644  0.00  0.00     0.042 A 
ATOM     10  C16 <0> d           4.630  -4.317  -5.990  0.00  0.00     0.118 A 
ATOM     11  C19 <0> d           3.957  -3.537  -6.925  0.00  0.00     0.205 A 
ATOM     12  O20 <0> d           4.314  -3.673  -8.087  0.00  0.00    -0.285 OA
ATOM     13  C21 <0> d           2.949  -2.639  -6.716  0.00  0.00     0.068 A 
ATOM     14  C22 <0> d           2.340  -2.189  -5.605  0.00  0.00    -0.020 A 
ATOM     15  C23 <0> d           1.197  -1.216  -5.812  0.00  0.00     0.119 C 
ATOM     16  C29 <0> d           1.627   0.215  -5.561  0.00  0.00     0.034 C 
ATOM     17  C30 <0> d           2.462   0.321  -4.287  0.00  0.00     0.042 C 
ENDROOT
BRANCH  15  18
ATOM     18  N25 <0> d           0.714  -1.333  -7.190  0.00  0.00    -0.353 N 
ATOM     19  C26 <0> d          -0.195  -2.276  -7.508  0.00  0.00     0.214 C 
ATOM     20  C27 <0> d          -0.692  -2.397  -8.925  0.00  0.00     0.117 C 
ATOM     21  O28 <0> d          -0.614  -3.027  -6.652  0.00  0.00    -0.274 OA
ATOM     22  H47 <0> d           1.049  -0.733  -7.874  0.00  0.00     0.163 HD
ENDBRANCH  15  18
BRANCH   5  23
ATOM     23  O8  <0> d           1.481  -3.987  -2.169  0.00  0.00    -0.352 OA
ATOM     24  C9  <0> d           0.411  -4.736  -2.749  0.00  0.00     0.210 C 
ENDBRANCH   5  23
BRANCH  10  25
ATOM     25  O17 <0> d           5.554  -5.190  -6.461  0.00  0.00    -0.352 OA
ATOM     26  C18 <0> d           6.241  -5.989  -5.496  0.00  0.00     0.210 C 
ENDBRANCH  10  25
BRANCH   6  27
ATOM     27  O11 <0> d           0.099  -2.718  -0.151  0.00  0.00    -0.351 OA
ATOM     28  C12 <0> d           0.904  -2.973   1.001  0.00  0.00     0.210 C 
ENDBRANCH   6  27
BRANCH   1  29
ATOM     29  O2  <0> d          -0.144   0.019  -0.172  0.00  0.00    -0.353 OA
ATOM     30  C1  <0> d          -0.233   1.444  -0.243  0.00  0.00     0.210 C 
ENDBRANCH   1  29
TORSDOF 5
