REMARK  5 active torsions:
REMARK  status: ('A' for Active; 'I' for Inactive)
REMARK    1  A    between atoms: C2_2  and  C3_3 
REMARK    2  A    between atoms: C3_3  and  N4_4 
REMARK    3  A    between atoms: N4_4  and  C5_5 
REMARK    4  A    between atoms: C5_5  and  C8_7 
REMARK       I    between atoms: C8_7  and  N10_9 
REMARK    5  A    between atoms: N10_9  and  C11_10 
ROOT
ATOM      1  C8  <0> d           2.011  -3.874   2.103  0.00  0.00     0.255 C 
ATOM      2  O9  <0> d           1.824  -4.370   1.012  0.00  0.00    -0.271 OA
ATOM      3  N10 <0> d           2.693  -4.556   3.045  0.00  0.00    -0.325 N 
ATOM      4  H29 <0> d           2.899  -4.135   3.894  0.00  0.00     0.169 HD
ENDROOT
BRANCH   1   5
ATOM      5  C5  <0> d           1.481  -2.497   2.405  0.00  0.00     0.307 C 
ATOM      6  C7  <0> d           0.508  -2.571   3.584  0.00  0.00     0.053 C 
BRANCH   5   7
ATOM      7  N4  <0> d           0.781  -1.972   1.225  0.00  0.00     0.096 N 
ATOM      8  H25 <0> d          -0.157  -2.339   1.168  0.00  0.00     0.316 HD
BRANCH   7   9
ATOM      9  C3  <0> d           0.771  -0.503   1.229  0.00  0.00     0.270 C 
BRANCH   9  10
ATOM     10  C2  <0> d           0.035   0.006  -0.012  0.00  0.00     0.025 C 
ATOM     11  C1  <0> d           0.025   1.536  -0.008  0.00  0.00     0.007 C 
ENDBRANCH   9  10
ENDBRANCH   7   9
ENDBRANCH   5   7
ENDBRANCH   1   5
BRANCH   3  12
ATOM     12  C11 <0> d           3.103  -5.870   2.799  0.00  0.00     0.040 A 
ATOM     13  C16 <0> d           3.133  -6.796   3.833  0.00  0.00    -0.035 A 
ATOM     14  C15 <0> d           3.532  -8.095   3.585  0.00  0.00     0.009 A 
ATOM     15  C17 <0> d           2.717  -6.387   5.223  0.00  0.00     0.050 C 
ATOM     16  C14 <0> d           3.914  -8.470   2.310  0.00  0.00     0.001 A 
ATOM     17  C13 <0> d           3.892  -7.550   1.279  0.00  0.00     0.002 A 
ATOM     18  C12 <0> d           3.487  -6.251   1.519  0.00  0.00     0.030 A 
ENDBRANCH   3  12
TORSDOF 5
