REMARK  1 active torsions:
REMARK  status: ('A' for Active; 'I' for Inactive)
REMARK    1  A    between atoms: N11_11  and  C12_12 
ROOT
ATOM      1  O1  ZIN AC000       0.002  -0.004   0.002  0.00  0.00    -0.267 OA
ATOM      2  C2  ZIN AC000      -0.014   1.210   0.009  0.00  0.00     0.262 A 
ATOM      3  C3  ZIN AC000      -1.226   2.057   0.031  0.00  0.00     0.048 A 
ATOM      4  C4  ZIN AC000      -2.587   1.798   0.050  0.00  0.00     0.018 A 
ATOM      5  C5  ZIN AC000      -3.487   2.852   0.068  0.00  0.00     0.001 A 
ATOM      6  C6  ZIN AC000      -3.036   4.158   0.068  0.00  0.00     0.001 A 
ATOM      7  C7  ZIN AC000      -1.677   4.433   0.049  0.00  0.00     0.018 A 
ATOM      8  C8  ZIN AC000      -0.766   3.389   0.031  0.00  0.00     0.048 A 
ATOM      9  C9  ZIN AC000       0.710   3.307   0.009  0.00  0.00     0.262 A 
ATOM     10  O10 ZIN AC000       1.472   4.253   0.002  0.00  0.00    -0.267 OA
ATOM     11  N11 ZIN AC000       1.067   2.010   0.003  0.00  0.00    -0.266 N 
ENDROOT
BRANCH  11  12
ATOM     12  C12 ZIN AC000       2.452   1.532  -0.019  0.00  0.00     0.189 C 
ATOM     13  C19 ZIN AC000       2.676   0.695  -1.250  0.00  0.00     0.247 C 
ATOM     14  N18 ZIN AC000       3.551  -0.323  -1.250  0.00  0.00    -0.296 N 
ATOM     15  O20 ZIN AC000       2.053   0.944  -2.260  0.00  0.00    -0.271 OA
ATOM     16  C16 ZIN AC000       4.266  -0.661  -0.167  0.00  0.00     0.224 C 
ATOM     17  H29 ZIN AC000       3.671  -0.833  -2.066  0.00  0.00     0.171 HD
ATOM     18  C15 ZIN AC000       4.133   0.099   1.126  0.00  0.00     0.106 C 
ATOM     19  O17 ZIN AC000       5.033  -1.598  -0.230  0.00  0.00    -0.273 OA
ATOM     20  C14 ZIN AC000       2.718   0.679   1.226  0.00  0.00     0.045 C 
ENDBRANCH  11  12
TORSDOF 1
