REMARK  5 active torsions:
REMARK  status: ('A' for Active; 'I' for Inactive)
REMARK    1  A    between atoms: N4_4  and  N5_5 
REMARK    2  A    between atoms: N5_5  and  C6_6 
REMARK    3  A    between atoms: C10_10  and  C11_11 
REMARK    4  A    between atoms: C15_15  and  C16_16 
REMARK    5  A    between atoms: N24_24  and  C25_25 
ROOT
ATOM      1  N5  ZIN AC000      -2.706   0.820   0.018  0.00  0.00    -0.147 NA
ENDROOT
BRANCH   1   2
ATOM      2  N4  ZIN AC000      -2.409  -0.435   0.010  0.00  0.00    -0.142 NA
ATOM      3  C3  ZIN AC000      -1.106  -0.827   0.003  0.00  0.00     0.174 A 
ATOM      4  C2  ZIN AC000       0.002  -0.004   0.002  0.00  0.00     0.087 A 
ATOM      5  C22 ZIN AC000      -0.603  -2.209  -0.007  0.00  0.00     0.301 A 
ATOM      6  C1  ZIN AC000      -0.018   1.503   0.010  0.00  0.00     0.075 C 
ATOM      7  N33 ZIN AC000       1.113  -0.783  -0.013  0.00  0.00    -0.167 NA
ATOM      8  N24 ZIN AC000       0.744  -2.131  -0.013  0.00  0.00    -0.195 N 
ATOM      9  O23 ZIN AC000      -1.271  -3.226  -0.010  0.00  0.00    -0.263 OA
BRANCH   8  10
ATOM     10  C25 ZIN AC000       1.625  -3.218  -0.023  0.00  0.00     0.062 A 
ATOM     11  C32 ZIN AC000       2.997  -3.002  -0.028  0.00  0.00     0.039 A 
ATOM     12  C30 ZIN AC000       3.863  -4.077  -0.033  0.00  0.00    -0.054 A 
ATOM     13  C28 ZIN AC000       3.366  -5.368  -0.043  0.00  0.00    -0.056 A 
ATOM     14  C31 ZIN AC000       5.352  -3.844  -0.033  0.00  0.00     0.049 C 
ATOM     15  C27 ZIN AC000       2.001  -5.586  -0.043  0.00  0.00     0.009 A 
ATOM     16  C29 ZIN AC000       4.315  -6.539  -0.053  0.00  0.00     0.049 C 
ATOM     17  C26 ZIN AC000       1.129  -4.515  -0.033  0.00  0.00     0.032 A 
ENDBRANCH   8  10
ENDBRANCH   1   2
BRANCH   1  18
ATOM     18  C6  ZIN AC000      -4.015   1.213   0.025  0.00  0.00     0.116 A 
ATOM     19  C20 ZIN AC000      -4.340   2.575   0.033  0.00  0.00     0.148 A 
ATOM     20  C10 ZIN AC000      -5.681   2.964   0.035  0.00  0.00     0.013 A 
ATOM     21  O21 ZIN AC000      -3.358   3.512   0.028  0.00  0.00    -0.189 OA
ATOM     22  C9  ZIN AC000      -6.684   1.996   0.041  0.00  0.00     0.015 A 
ATOM     23  C8  ZIN AC000      -6.356   0.654   0.039  0.00  0.00     0.003 A 
ATOM     24  C7  ZIN AC000      -5.034   0.257   0.030  0.00  0.00     0.036 A 
BRANCH  20  25
ATOM     25  C11 ZIN AC000      -6.038   4.404   0.037  0.00  0.00    -0.022 A 
ATOM     26  C19 ZIN AC000      -6.962   4.894  -0.879  0.00  0.00     0.030 A 
ATOM     27  C15 ZIN AC000      -7.296   6.248  -0.867  0.00  0.00     0.041 A 
ATOM     28  C14 ZIN AC000      -6.692   7.105   0.058  0.00  0.00     0.018 A 
ATOM     29  C13 ZIN AC000      -5.772   6.611   0.960  0.00  0.00     0.002 A 
ATOM     30  C12 ZIN AC000      -5.442   5.269   0.955  0.00  0.00     0.012 A 
BRANCH  27  31
ATOM     31  C16 ZIN AC000      -8.280   6.776  -1.832  0.00  0.00     0.209 C 
ATOM     32  O17 ZIN AC000      -8.568   7.965  -1.823  0.00  0.00    -0.644 OA
ATOM     33  O18 ZIN AC000      -8.807   6.026  -2.640  0.00  0.00    -0.644 OA
ENDBRANCH  27  31
ENDBRANCH  20  25
ENDBRANCH   1  18
TORSDOF 5
