REMARK  1 active torsions:
REMARK  status: ('A' for Active; 'I' for Inactive)
REMARK    1  A    between atoms: N1_1  and  C2_2 
ROOT
ATOM      1  C2  <0> d           0.002  -0.004   0.002  0.00  0.00     0.701 A 
ATOM      2  N3  <0> d          -1.138  -0.658   0.004  0.00  0.00    -0.045 NA
ATOM      3  C4  <0> d          -1.168  -1.996  -0.003  0.00  0.00     0.179 A 
ATOM      4  C5  <0> d           0.032  -2.716  -0.013  0.00  0.00     0.143 A 
ATOM      5  N6  <0> d          -0.289  -4.033  -0.018  0.00  0.00    -0.237 NA
ATOM      6  C7  <0> d          -1.584  -4.161  -0.012  0.00  0.00     0.209 A 
ATOM      7  N8  <0> d          -2.170  -2.928  -0.003  0.00  0.00    -0.333 N 
ATOM      8  C9  <0> d           1.251  -2.000  -0.015  0.00  0.00     0.149 A 
ATOM      9  S10 <0> d           2.752  -2.824  -0.027  0.00  0.00    -0.057 SA
ATOM     10  N11 <0> d           1.202  -0.650  -0.013  0.00  0.00    -0.178 N 
ATOM     11  H15 <0> d          -3.123  -2.747   0.003  0.00  0.00     0.168 HD
ATOM     12  H16 <0> d           2.026  -0.137  -0.015  0.00  0.00     0.185 HD
ENDROOT
BRANCH   1  13
ATOM     13  N1  <0> d          -0.017   1.368   0.010  0.00  0.00    -0.233 N 
ATOM     14  H12 <0> d           0.817   1.865   0.004  0.00  0.00     0.174 HD
ATOM     15  H13 <0> d          -0.863   1.842   0.016  0.00  0.00     0.174 HD
ENDBRANCH   1  13
TORSDOF 1
