REMARK  4 active torsions:
REMARK  status: ('A' for Active; 'I' for Inactive)
REMARK    1  A    between atoms: C3_3  and  N4_4 
REMARK    2  A    between atoms: N4_4  and  C6_6 
REMARK    3  A    between atoms: C6_6  and  C9_8 
REMARK    4  A    between atoms: C9_8  and  C10_9 
ROOT
ATOM      1  C1  <0> d           0.329  -1.502  -0.397  0.00  0.00     0.013 C 
ATOM      2  C2  <0> d           0.133  -0.345  -0.371  0.00  0.00    -0.087 C 
ATOM      3  C3  <0> d          -0.113   1.106  -0.338  0.00  0.00     0.364 C 
ENDROOT
BRANCH   3   4
ATOM      4  N4  <0> d           1.169   1.822  -0.394  0.00  0.00     0.099 N 
ATOM      5  C5  <0> d           1.835   1.609  -1.686  0.00  0.00     0.311 C 
BRANCH   4   6
ATOM      6  C6  <0> d           0.984   3.254  -0.126  0.00  0.00     0.223 C 
ATOM      7  C8  <0> d           0.397   3.440   1.274  0.00  0.00     0.043 C 
BRANCH   6   8
ATOM      8  C9  <0> d           2.335   3.967  -0.211  0.00  0.00     0.074 C 
BRANCH   8   9
ATOM      9  C10 <0> d           2.130   5.452  -0.058  0.00  0.00    -0.056 A 
ATOM     10  C15 <0> d           2.287   6.047   1.180  0.00  0.00     0.007 A 
ATOM     11  C14 <0> d           2.103   7.410   1.321  0.00  0.00     0.001 A 
ATOM     12  C13 <0> d           1.753   8.177   0.225  0.00  0.00     0.000 A 
ATOM     13  C12 <0> d           1.590   7.581  -1.012  0.00  0.00     0.001 A 
ATOM     14  C11 <0> d           1.778   6.219  -1.153  0.00  0.00     0.007 A 
ENDBRANCH   8   9
ENDBRANCH   6   8
ENDBRANCH   4   6
ENDBRANCH   3   4
TORSDOF 4
