REMARK  4 active torsions:
REMARK  status: ('A' for Active; 'I' for Inactive)
REMARK    1  A    between atoms: C3_3  and  C4_4 
REMARK    2  A    between atoms: C4_4  and  N5_5 
REMARK    3  A    between atoms: C25_25  and  C26_26 
REMARK    4  A    between atoms: C26_26  and  N27_27 
ROOT
ATOM      1  C1  ZIN AC000       0.373   1.104   0.627  0.00  0.00     0.009 A 
ATOM      2  C2  ZIN AC000       1.616   1.707   0.566  0.00  0.00     0.009 A 
ATOM      3  C3  ZIN AC000       2.719   0.977   0.167  0.00  0.00    -0.030 A 
ATOM      4  C23 ZIN AC000       2.581  -0.356  -0.172  0.00  0.00     0.009 A 
ATOM      5  C24 ZIN AC000       1.339  -0.959  -0.111  0.00  0.00     0.009 A 
ATOM      6  C25 ZIN AC000       0.234  -0.229   0.288  0.00  0.00    -0.030 A 
ENDROOT
BRANCH   3   7
ATOM      7  C4  ZIN AC000       4.074   1.635   0.100  0.00  0.00     0.311 C 
BRANCH   7   8
ATOM      8  N5  ZIN AC000       5.052   0.815   0.828  0.00  0.00     0.094 N 
ATOM      9  C22 ZIN AC000       4.735   0.766   2.262  0.00  0.00     0.300 C 
ATOM     10  C21 ZIN AC000       3.304   1.261   2.485  0.00  0.00     0.262 C 
ATOM     11  N18 ZIN AC000       3.296   2.273   3.549  0.00  0.00    -0.073 N 
ATOM     12  C17 ZIN AC000       2.570   3.464   3.087  0.00  0.00     0.234 C 
ATOM     13  H19 ZIN AC000       4.246   2.527   3.779  0.00  0.00     0.277 HD
ATOM     14  H20 ZIN AC000       2.841   1.898   4.367  0.00  0.00     0.277 HD
ATOM     15  C16 ZIN AC000       3.335   4.722   3.504  0.00  0.00     0.057 C 
ATOM     16  C15 ZIN AC000       3.320   5.732   2.355  0.00  0.00     0.271 C 
ATOM     17  N14 ZIN AC000       4.678   6.252   2.143  0.00  0.00     0.085 N 
ATOM     18  C13 ZIN AC000       5.018   6.266   0.714  0.00  0.00     0.297 C 
ATOM     19  H59 ZIN AC000       5.354   5.722   2.671  0.00  0.00     0.315 HD
ATOM     20  C12 ZIN AC000       6.420   5.685   0.518  0.00  0.00     0.262 C 
ATOM     21  N9  ZIN AC000       6.398   4.713  -0.583  0.00  0.00    -0.073 N 
ATOM     22  C8  ZIN AC000       7.195   3.536  -0.213  0.00  0.00     0.234 C 
ATOM     23  H10 ZIN AC000       6.787   5.135  -1.413  0.00  0.00     0.277 HD
ATOM     24  H11 ZIN AC000       5.446   4.431  -0.764  0.00  0.00     0.277 HD
ATOM     25  C7  ZIN AC000       6.430   2.264  -0.586  0.00  0.00     0.057 C 
ATOM     26  C6  ZIN AC000       6.418   1.307   0.608  0.00  0.00     0.274 C 
ENDBRANCH   7   8
ENDBRANCH   3   7
BRANCH   6  27
ATOM     27  C26 ZIN AC000      -1.120  -0.886   0.355  0.00  0.00     0.311 C 
BRANCH  27  28
ATOM     28  N27 ZIN AC000      -1.958  -0.182   1.334  0.00  0.00     0.094 N 
ATOM     29  C44 ZIN AC000      -1.438  -0.359   2.696  0.00  0.00     0.300 C 
ATOM     30  C43 ZIN AC000      -0.006  -0.894   2.630  0.00  0.00     0.262 C 
ATOM     31  N40 ZIN AC000       0.123  -2.059   3.514  0.00  0.00    -0.073 N 
ATOM     32  C39 ZIN AC000       0.739  -3.170   2.775  0.00  0.00     0.234 C 
ATOM     33  H41 ZIN AC000      -0.790  -2.338   3.839  0.00  0.00     0.277 HD
ATOM     34  H42 ZIN AC000       0.703  -1.819   4.305  0.00  0.00     0.277 HD
ATOM     35  C38 ZIN AC000       0.004  -4.471   3.103  0.00  0.00     0.057 C 
ATOM     36  C37 ZIN AC000      -0.177  -5.291   1.824  0.00  0.00     0.271 C 
ATOM     37  N36 ZIN AC000      -1.566  -5.760   1.735  0.00  0.00     0.085 N 
ATOM     38  C35 ZIN AC000      -2.108  -5.549   0.386  0.00  0.00     0.297 C 
ATOM     39  H84 ZIN AC000      -2.144  -5.313   2.431  0.00  0.00     0.315 HD
ATOM     40  C34 ZIN AC000      -3.505  -4.934   0.488  0.00  0.00     0.262 C 
ATOM     41  N31 ZIN AC000      -3.611  -3.803  -0.443  0.00  0.00    -0.073 N 
ATOM     42  C30 ZIN AC000      -4.310  -2.691   0.215  0.00  0.00     0.234 C 
ATOM     43  H32 ZIN AC000      -4.128  -4.088  -1.261  0.00  0.00     0.277 HD
ATOM     44  H33 ZIN AC000      -2.687  -3.504  -0.716  0.00  0.00     0.277 HD
ATOM     45  C29 ZIN AC000      -3.568  -1.383  -0.068  0.00  0.00     0.057 C 
ATOM     46  C28 ZIN AC000      -3.357  -0.623   1.244  0.00  0.00     0.274 C 
ENDBRANCH  27  28
ENDBRANCH   6  27
TORSDOF 4
