REMARK  3 active torsions:
REMARK  status: ('A' for Active; 'I' for Inactive)
REMARK    1  A    between atoms: C8_8  and  O9_9 
REMARK    2  A    between atoms: C10_10  and  C12_11 
REMARK    3  A    between atoms: C15_14  and  O16_15 
ROOT
ATOM      1  O1  ZIN AC000       0.066  -0.004   0.020  0.00  0.00    -0.187 OA
ATOM      2  C2  ZIN AC000       0.032   1.356   0.023  0.00  0.00     0.162 A 
ATOM      3  C3  ZIN AC000      -1.180   2.022   0.025  0.00  0.00     0.080 A 
ATOM      4 Cl4  ZIN AC000      -2.656   1.107   0.026  0.00  0.00    -0.081 Cl
ATOM      5  C5  ZIN AC000      -1.226   3.414   0.027  0.00  0.00    -0.025 A 
ATOM      6  C6  ZIN AC000      -0.059   4.136   0.036  0.00  0.00    -0.037 A 
ATOM      7  C7  ZIN AC000       1.164   3.466   0.031  0.00  0.00     0.048 A 
ATOM      8  C8  ZIN AC000       1.216   2.086   0.018  0.00  0.00     0.104 A 
ATOM      9  C10 ZIN AC000       0.007   5.639   0.062  0.00  0.00     0.078 C 
ATOM     10  C19 ZIN AC000      -1.263   6.285   0.591  0.00  0.00     0.246 C 
ATOM     11  N20 ZIN AC000      -2.282   6.428  -0.434  0.00  0.00    -0.074 N 
ATOM     12  H21 ZIN AC000      -3.115   6.834   0.006  0.00  0.00     0.277 HD
ATOM     13  H22 ZIN AC000      -2.005   7.082  -1.147  0.00  0.00     0.277 HD
ATOM     14  C23 ZIN AC000      -2.677   5.155  -1.033  0.00  0.00     0.237 C 
ATOM     15  C24 ZIN AC000      -2.595   4.050   0.017  0.00  0.00     0.068 C 
ENDROOT
BRANCH   9  16
ATOM     16  C12 ZIN AC000       0.384   6.167  -1.298  0.00  0.00    -0.048 A 
ATOM     17  C18 ZIN AC000       0.103   5.424  -2.429  0.00  0.00     0.011 A 
ATOM     18  C17 ZIN AC000       0.443   5.908  -3.678  0.00  0.00     0.037 A 
ATOM     19  C15 ZIN AC000       1.077   7.136  -3.795  0.00  0.00     0.065 A 
ATOM     20  C14 ZIN AC000       1.363   7.878  -2.657  0.00  0.00     0.037 A 
ATOM     21  C13 ZIN AC000       1.016   7.391  -1.412  0.00  0.00     0.011 A 
BRANCH  19  22
ATOM     22  O16 ZIN AC000       1.417   7.613  -5.021  0.00  0.00    -0.361 OA
ATOM     23  H29 ZIN AC000       2.301   7.351  -5.313  0.00  0.00     0.217 HD
ENDBRANCH  19  22
ENDBRANCH   9  16
BRANCH   8  24
ATOM     24  O9  ZIN AC000       2.415   1.445   0.008  0.00  0.00    -0.358 OA
ATOM     25  H26 ZIN AC000       2.765   1.251   0.889  0.00  0.00     0.217 HD
ENDBRANCH   8  24
TORSDOF 3
