REMARK  7 active torsions:
REMARK  status: ('A' for Active; 'I' for Inactive)
REMARK    1  A    between atoms: P2_2  and  O4_4 
REMARK    2  A    between atoms: P2_2  and  C5_5 
REMARK    3  A    between atoms: C5_5  and  O6_6 
REMARK    4  A    between atoms: C5_5  and  C7_7 
REMARK    5  A    between atoms: C5_5  and  P14_14 
REMARK    6  A    between atoms: C7_7  and  C8_8 
REMARK    7  A    between atoms: P14_14  and  O17_17 
ROOT
ATOM      1  C5  ZIN AC000      -0.872   2.129   1.510  0.00  0.00     0.272 C 
ENDROOT
BRANCH   1   2
ATOM      2  P2  ZIN AC000      -0.019   1.541   0.011  0.00  0.00     0.296 P 
ATOM      3  O1  ZIN AC000       0.002  -0.004   0.002  0.00  0.00    -0.644 OA
ATOM      4  O3  ZIN AC000       1.431   2.075  -0.001  0.00  0.00    -0.644 OA
BRANCH   2   5
ATOM      5  O4  ZIN AC000      -0.798   2.074  -1.294  0.00  0.00    -0.320 OA
ATOM      6  H18 ZIN AC000      -0.398   1.799  -2.130  0.00  0.00     0.221 HD
ENDBRANCH   2   5
ENDBRANCH   1   2
BRANCH   1   7
ATOM      7  O6  ZIN AC000      -0.181   1.655   2.668  0.00  0.00    -0.366 OA
ATOM      8  H19 ZIN AC000      -0.580   1.931   3.505  0.00  0.00     0.212 HD
ENDBRANCH   1   7
BRANCH   1   9
ATOM      9  C7  ZIN AC000      -0.893   3.659   1.519  0.00  0.00     0.105 C 
BRANCH   9  10
ATOM     10  C8  ZIN AC000       0.521   4.180   1.508  0.00  0.00    -0.036 A 
ATOM     11  C13 ZIN AC000       1.166   4.429   0.311  0.00  0.00     0.123 A 
ATOM     12  N12 ZIN AC000       2.401   4.890   0.294  0.00  0.00    -0.273 NA
ATOM     13  C11 ZIN AC000       3.071   5.121   1.407  0.00  0.00     0.116 A 
ATOM     14  C10 ZIN AC000       2.493   4.891   2.640  0.00  0.00     0.020 A 
ATOM     15  C9  ZIN AC000       1.193   4.411   2.698  0.00  0.00     0.010 A 
ENDBRANCH   9  10
ENDBRANCH   1   9
BRANCH   1  16
ATOM     16  P14 ZIN AC000      -2.582   1.498   1.523  0.00  0.00     0.296 P 
ATOM     17  O15 ZIN AC000      -3.291   1.904   0.212  0.00  0.00    -0.644 OA
ATOM     18  O16 ZIN AC000      -3.343   2.097   2.727  0.00  0.00    -0.644 OA
BRANCH  16  19
ATOM     19  O17 ZIN AC000      -2.561  -0.107   1.647  0.00  0.00    -0.320 OA
ATOM     20  H26 ZIN AC000      -3.439  -0.512   1.660  0.00  0.00     0.221 HD
ENDBRANCH  16  19
ENDBRANCH   1  16
TORSDOF 7
