REMARK  7 active torsions:
REMARK  status: ('A' for Active; 'I' for Inactive)
REMARK    1  A    between atoms: N1_1  and  C5_5 
REMARK    2  A    between atoms: C5_5  and  C6_6 
REMARK    3  A    between atoms: C5_5  and  C8_8 
REMARK    4  A    between atoms: C5_5  and  C10_10 
REMARK    5  A    between atoms: C6_6  and  O7_7 
REMARK    6  A    between atoms: C8_8  and  O9_9 
REMARK    7  A    between atoms: C10_10  and  O11_11 
ROOT
ATOM      1  C5  RES d   1      -0.699   1.479   1.216  0.00  0.00     0.186 C 
ENDROOT
BRANCH   1   2
ATOM      2  N1  RES d   1      -0.012   1.005   0.008  0.00  0.00    -0.064 N 
ATOM      3  H2  RES d   1       0.002  -0.004   0.002  0.00  0.00     0.275 HD
ATOM      4  H3  RES d   1       0.935   1.354   0.000  0.00  0.00     0.275 HD
ATOM      5  H4  RES d   1      -0.500   1.339  -0.810  0.00  0.00     0.275 HD
ENDBRANCH   1   2
BRANCH   1   6
ATOM      6  C6  RES d   1       0.041   0.972   2.456  0.00  0.00     0.207 C 
BRANCH   6   7
ATOM      7  O7  RES d   1      -0.628   1.433   3.631  0.00  0.00    -0.398 OA
ATOM      8  H14 RES d   1      -0.213   1.148   4.457  0.00  0.00     0.209 HD
ENDBRANCH   6   7
ENDBRANCH   1   6
BRANCH   1   9
ATOM      9  C8  RES d   1      -0.720   3.008   1.225  0.00  0.00     0.207 C 
BRANCH   9  10
ATOM     10  O9  RES d   1       0.614   3.504   1.097  0.00  0.00    -0.398 OA
ATOM     11  H17 RES d   1       0.677   4.468   1.095  0.00  0.00     0.209 HD
ENDBRANCH   9  10
ENDBRANCH   1   9
BRANCH   1  12
ATOM     12  C10 RES d   1      -2.135   0.949   1.227  0.00  0.00     0.207 C 
BRANCH  12  13
ATOM     13  O11 RES d   1      -2.115  -0.480   1.219  0.00  0.00    -0.398 OA
ATOM     14  H20 RES d   1      -2.993  -0.885   1.225  0.00  0.00     0.209 HD
ENDBRANCH  12  13
ENDBRANCH   1  12
TORSDOF 7
