REMARK  3 active torsions:
REMARK  status: ('A' for Active; 'I' for Inactive)
REMARK    1  A    between atoms: N2_2  and  C5_5 
REMARK    2  A    between atoms: C5_5  and  C8_7 
REMARK    3  A    between atoms: C8_7  and  C9_8 
ROOT
ATOM      1  C8  <0> d           0.602  -2.004  -1.278  0.00  0.00     0.037 C 
ENDROOT
BRANCH   1   2
ATOM      2  C5  <0> d           0.690  -0.478  -1.207  0.00  0.00     0.181 C 
ATOM      3  C7  <0> d           2.159  -0.053  -1.157  0.00  0.00     0.040 C 
BRANCH   2   4
ATOM      4  N2  <0> d           0.002  -0.004   0.002  0.00  0.00    -0.075 N 
ATOM      5  C1  <0> d          -0.018   1.465   0.010  0.00  0.00     0.267 C 
ATOM      6  H3  <0> d           0.490  -0.338   0.820  0.00  0.00     0.277 HD
ATOM      7  H4  <0> d          -0.945  -0.353   0.009  0.00  0.00     0.277 HD
ENDBRANCH   2   4
ENDBRANCH   1   2
BRANCH   1   8
ATOM      8  C9  <0> d          -0.859  -2.423  -1.453  0.00  0.00    -0.013 C 
ATOM      9  C14 <0> d          -0.962  -3.948  -1.400  0.00  0.00     0.005 C 
ATOM     10  C13 <0> d          -2.423  -4.367  -1.575  0.00  0.00     0.000 C 
ATOM     11  C12 <0> d          -2.939  -3.868  -2.927  0.00  0.00     0.000 C 
ATOM     12  C11 <0> d          -2.836  -2.342  -2.980  0.00  0.00     0.000 C 
ATOM     13  C10 <0> d          -1.375  -1.923  -2.805  0.00  0.00     0.005 C 
ENDBRANCH   1   8
TORSDOF 3
