REMARK  1 active torsions:
REMARK  status: ('A' for Active; 'I' for Inactive)
REMARK    1  A    between atoms: C5_5  and  C6_6 
ROOT
ATOM      1  C6  <0> d           0.060  -4.244  -0.021  0.00  0.00     0.022 C 
ATOM      2  C7  <0> d           0.178  -4.926   1.142  0.00  0.00    -0.006 C 
ATOM      3  C8  <0> d           0.185  -4.373   2.452  0.00  0.00     0.165 C 
ATOM      4  O9  <0> d           0.086  -3.198   2.742  0.00  0.00    -0.292 OA
ATOM      5  C10 <0> d           0.340  -5.547   3.427  0.00  0.00     0.029 C 
ATOM      6  C11 <0> d          -0.094  -5.286   4.871  0.00  0.00     0.025 C 
ATOM      7  C12 <0> d           1.808  -6.034   3.212  0.00  0.00     0.018 C 
ATOM      8  C13 <0> d           1.800  -6.636   1.787  0.00  0.00     0.011 C 
ATOM      9  C14 <0> d           0.322  -6.445   1.302  0.00  0.00     0.031 C 
ATOM     10  C16 <0> d          -0.449  -6.660   2.650  0.00  0.00    -0.025 C 
ATOM     11  C17 <0> d          -0.214  -8.054   3.237  0.00  0.00     0.016 C 
ATOM     12  C18 <0> d          -1.939  -6.335   2.524  0.00  0.00     0.016 C 
ENDROOT
BRANCH   1  13
ATOM     13  C5  <0> d           0.110  -2.775  -0.021  0.00  0.00    -0.036 A 
ATOM     14  C4  <0> d           1.025  -2.102   0.797  0.00  0.00     0.012 A 
ATOM     15  C3  <0> d           1.064  -0.724   0.793  0.00  0.00     0.007 A 
ATOM     16  C2  <0> d           0.203  -0.006  -0.019  0.00  0.00    -0.062 A 
ATOM     17  C1  <0> d           0.254   1.500  -0.018  0.00  0.00     0.048 C 
ATOM     18  C20 <0> d          -0.708  -0.664  -0.828  0.00  0.00     0.007 A 
ATOM     19  C19 <0> d          -0.757  -2.041  -0.838  0.00  0.00     0.012 A 
ENDBRANCH   1  13
TORSDOF 1
