REMARK  8 active torsions:
REMARK  status: ('A' for Active; 'I' for Inactive)
REMARK    1  A    between atoms: C2_2  and  N4_4 
REMARK    2  A    between atoms: N4_4  and  C6_6 
REMARK    3  A    between atoms: N4_4  and  C24_24 
REMARK    4  A    between atoms: C6_6  and  C7_7 
REMARK    5  A    between atoms: C7_7  and  C8_8 
REMARK    6  A    between atoms: C8_8  and  C9_9 
REMARK    7  A    between atoms: C8_8  and  C12_12 
REMARK    8  A    between atoms: C8_8  and  C18_18 
REMARK       I    between atoms: C9_9  and  N10_10 
ROOT
ATOM      1  C8  ZIN AC000      -2.937   2.300  -2.450  0.00  0.00     0.113 C 
ENDROOT
BRANCH   1   2
ATOM      2  C7  ZIN AC000      -2.322   2.331  -1.050  0.00  0.00     0.058 C 
BRANCH   2   3
ATOM      3  C6  ZIN AC000      -2.392   0.933  -0.431  0.00  0.00     0.237 C 
BRANCH   3   4
ATOM      4  N4  ZIN AC000      -1.964   0.998   0.973  0.00  0.00    -0.064 N 
ATOM      5  H5  ZIN AC000      -2.521   1.682   1.463  0.00  0.00     0.280 HD
BRANCH   4   6
ATOM      6  C2  ZIN AC000      -0.548   1.381   1.036  0.00  0.00     0.180 C 
ATOM      7  C1  ZIN AC000       0.183   0.836  -0.192  0.00  0.00     0.039 C 
ATOM      8  C3  ZIN AC000      -0.434   2.907   1.062  0.00  0.00     0.039 C 
ENDBRANCH   4   6
BRANCH   4   9
ATOM      9  C24 ZIN AC000      -2.143  -0.319   1.601  0.00  0.00     0.180 C 
ATOM     10  C25 ZIN AC000      -1.833  -0.218   3.095  0.00  0.00     0.039 C 
ATOM     11  C26 ZIN AC000      -3.589  -0.782   1.409  0.00  0.00     0.039 C 
ENDBRANCH   4   9
ENDBRANCH   3   4
ENDBRANCH   2   3
ENDBRANCH   1   2
BRANCH   1  12
ATOM     12  C9  ZIN AC000      -4.348   1.776  -2.367  0.00  0.00     0.234 C 
ATOM     13  N10 ZIN AC000      -4.569   0.463  -2.162  0.00  0.00    -0.369 N 
ATOM     14  H38 ZIN AC000      -3.821  -0.137  -2.010  0.00  0.00     0.159 HD
ATOM     15  H39 ZIN AC000      -5.474   0.116  -2.167  0.00  0.00     0.159 HD
ATOM     16  O11 ZIN AC000      -5.285   2.537  -2.485  0.00  0.00    -0.272 OA
ENDBRANCH   1  12
BRANCH   1  17
ATOM     17  C12 ZIN AC000      -2.951   3.693  -3.024  0.00  0.00    -0.034 A 
ATOM     18  C17 ZIN AC000      -3.556   3.933  -4.243  0.00  0.00     0.009 A 
ATOM     19  C16 ZIN AC000      -3.573   5.212  -4.767  0.00  0.00     0.001 A 
ATOM     20  C15 ZIN AC000      -2.977   6.250  -4.076  0.00  0.00     0.000 A 
ATOM     21  C14 ZIN AC000      -2.368   6.009  -2.858  0.00  0.00     0.001 A 
ATOM     22  C13 ZIN AC000      -2.355   4.731  -2.332  0.00  0.00     0.009 A 
ENDBRANCH   1  17
BRANCH   1  23
ATOM     23  C18 ZIN AC000      -2.119   1.399  -3.339  0.00  0.00     0.056 A 
ATOM     24  N23 ZIN AC000      -0.911   1.030  -2.958  0.00  0.00    -0.264 NA
ATOM     25  C22 ZIN AC000      -0.161   0.240  -3.701  0.00  0.00     0.117 A 
ATOM     26  C21 ZIN AC000      -0.616  -0.225  -4.920  0.00  0.00     0.019 A 
ATOM     27  C20 ZIN AC000      -1.879   0.145  -5.356  0.00  0.00     0.003 A 
ATOM     28  C19 ZIN AC000      -2.640   0.974  -4.546  0.00  0.00     0.029 A 
ENDBRANCH   1  23
TORSDOF 8
