REMARK  1 active torsions:
REMARK  status: ('A' for Active; 'I' for Inactive)
REMARK    1  A    between atoms: C23_20  and  O24_21 
ROOT
ATOM      1  C1  ZIN AC000      -0.018   1.465   0.010  0.00  0.00     0.310 C 
ATOM      2  N2  ZIN AC000       0.002  -0.004   0.002  0.00  0.00     0.089 N 
ATOM      3  C3  ZIN AC000       0.457  -0.517  -1.296  0.00  0.00     0.273 C 
ATOM      4  C4  ZIN AC000       0.357  -2.047  -1.315  0.00  0.00     0.048 C 
ATOM      5  C5  ZIN AC000       1.186  -2.599  -0.158  0.00  0.00     0.031 C 
ATOM      6  C6  ZIN AC000       2.611  -2.117  -0.277  0.00  0.00    -0.003 C 
ATOM      7  C7  ZIN AC000       3.346  -3.122  -0.888  0.00  0.00     0.110 C 
ATOM      8  O8  ZIN AC000       2.570  -4.207  -1.100  0.00  0.00    -0.334 OA
ATOM      9  C9  ZIN AC000       1.378  -4.106  -0.264  0.00  0.00     0.212 C 
ATOM     10  C11 ZIN AC000       1.700  -4.749   1.052  0.00  0.00     0.157 C 
ATOM     11  O12 ZIN AC000       2.309  -5.792   1.051  0.00  0.00    -0.295 OA
ATOM     12  C13 ZIN AC000       1.302  -4.156   2.371  0.00  0.00     0.081 C 
ATOM     13  C14 ZIN AC000       1.499  -2.639   2.342  0.00  0.00     0.015 C 
ATOM     14  C15 ZIN AC000       0.670  -2.050   1.163  0.00  0.00     0.036 C 
ATOM     15  C17 ZIN AC000       0.806  -0.525   1.114  0.00  0.00     0.232 C 
ATOM     16  C19 ZIN AC000       2.238  -0.032   0.989  0.00  0.00     0.075 C 
ATOM     17  C20 ZIN AC000       3.126  -0.944   0.226  0.00  0.00    -0.046 C 
ATOM     18  C21 ZIN AC000       4.461  -0.703  -0.047  0.00  0.00     0.011 C 
ATOM     19  C22 ZIN AC000       5.222  -1.656  -0.706  0.00  0.00     0.040 C 
ATOM     20  C23 ZIN AC000       4.702  -2.882  -1.139  0.00  0.00     0.099 C 
ENDROOT
BRANCH  20  21
ATOM     21  O24 ZIN AC000       5.485  -3.809  -1.752  0.00  0.00    -0.358 OA
ATOM     22  H40 ZIN AC000       5.903  -4.435  -1.145  0.00  0.00     0.217 HD
ENDBRANCH  20  21
TORSDOF 1
