REMARK  6 active torsions:
REMARK  status: ('A' for Active; 'I' for Inactive)
REMARK    1  A    between atoms: C2_2  and  C3_3 
REMARK       I    between atoms: C2_2  and  N21_21 
REMARK    2  A    between atoms: C4_4  and  C5_5 
REMARK    3  A    between atoms: C9_9  and  S10_10 
REMARK    4  A    between atoms: S10_10  and  N13_13 
REMARK    5  A    between atoms: N13_13  and  C14_14 
REMARK    6  A    between atoms: N21_21  and  O22_22 
ROOT
ATOM      1  C5  <0> d           3.685   2.057  -0.022  0.00  0.00    -0.035 A 
ATOM      2  C6  <0> d           3.670   3.455  -0.009  0.00  0.00     0.011 A 
ATOM      3  C7  <0> d           4.859   4.154  -0.016  0.00  0.00     0.002 A 
ATOM      4  C8  <0> d           6.064   3.475  -0.037  0.00  0.00     0.025 A 
ATOM      5  C9  <0> d           6.087   2.091  -0.051  0.00  0.00     0.082 A 
ATOM      6  C20 <0> d           4.907   1.378  -0.037  0.00  0.00     0.036 A 
ENDROOT
BRANCH   5   7
ATOM      7  S10 <0> d           7.629   1.238  -0.077  0.00  0.00     0.283 S 
ATOM      8  O11 <0> d           7.368  -0.045  -0.631  0.00  0.00    -0.198 OA
ATOM      9  O12 <0> d           8.579   2.142  -0.625  0.00  0.00    -0.198 OA
BRANCH   7  10
ATOM     10  N13 <0> d           8.077   0.985   1.497  0.00  0.00    -0.160 NA
BRANCH  10  11
ATOM     11  C14 <0> d           9.272   0.323   1.785  0.00  0.00     0.070 A 
ATOM     12  C19 <0> d           9.649   0.110   3.105  0.00  0.00     0.032 A 
ATOM     13  C18 <0> d          10.829  -0.549   3.387  0.00  0.00     0.002 A 
ATOM     14  C17 <0> d          11.640  -0.989   2.357  0.00  0.00     0.000 A 
ATOM     15  C16 <0> d          11.271  -0.774   1.042  0.00  0.00     0.002 A 
ATOM     16  C15 <0> d          10.089  -0.120   0.753  0.00  0.00     0.032 A 
ENDBRANCH  10  11
ENDBRANCH   7  10
ENDBRANCH   5   7
BRANCH   1  17
ATOM     17  C4  <0> d           2.420   1.304  -0.014  0.00  0.00     0.017 C 
ATOM     18  C3  <0> d           1.244   1.962   0.001  0.00  0.00     0.077 C 
BRANCH  18  19
ATOM     19  C2  <0> d          -0.014   1.213   0.009  0.00  0.00     0.264 C 
ATOM     20  O1  <0> d           0.002  -0.004   0.002  0.00  0.00    -0.266 OA
ATOM     21  N21 <0> d          -1.191   1.871   0.018  0.00  0.00    -0.234 N 
ATOM     22  H34 <0> d          -1.204   2.841   0.023  0.00  0.00     0.197 HD
BRANCH  21  23
ATOM     23  O22 <0> d          -2.407   1.146   0.020  0.00  0.00    -0.287 OA
ATOM     24  H35 <0> d          -3.197   1.704   0.026  0.00  0.00     0.244 HD
ENDBRANCH  21  23
ENDBRANCH  18  19
ENDBRANCH   1  17
TORSDOF 6
