REMARK  7 active torsions:
REMARK  status: ('A' for Active; 'I' for Inactive)
REMARK       I    between atoms: N1_1  and  C2_2 
REMARK    1  A    between atoms: C2_2  and  O4_4 
REMARK    2  A    between atoms: O4_4  and  C5_5 
REMARK    3  A    between atoms: C5_5  and  C6_6 
REMARK    4  A    between atoms: C6_6  and  C7_7 
REMARK    5  A    between atoms: C6_6  and  C12_12 
REMARK    6  A    between atoms: C7_7  and  O8_8 
REMARK    7  A    between atoms: O8_8  and  C9_9 
REMARK       I    between atoms: C9_9  and  N10_10 
ROOT
ATOM      1  C6  <0> d          -2.465  -2.746   0.011  0.00  0.00     0.067 C 
ENDROOT
BRANCH   1   2
ATOM      2  C5  <0> d          -1.059  -2.142   0.001  0.00  0.00     0.192 C 
BRANCH   2   3
ATOM      3  O4  <0> d          -1.155  -0.693   0.009  0.00  0.00    -0.303 OA
BRANCH   3   4
ATOM      4  C2  <0> d           0.002  -0.004   0.002  0.00  0.00     0.358 C 
ATOM      5  N1  <0> d          -0.016   1.344   0.009  0.00  0.00    -0.346 N 
ATOM      6  H18 <0> d           0.817   1.840   0.004  0.00  0.00     0.161 HD
ATOM      7  H19 <0> d          -0.863   1.817   0.016  0.00  0.00     0.161 HD
ATOM      8  O3  <0> d           1.062  -0.597  -0.011  0.00  0.00    -0.239 OA
ENDBRANCH   3   4
ENDBRANCH   2   3
ENDBRANCH   1   2
BRANCH   1   9
ATOM      9  C7  <0> d          -3.186  -2.380  -1.288  0.00  0.00     0.192 C 
BRANCH   9  10
ATOM     10  O8  <0> d          -3.386  -0.943  -1.342  0.00  0.00    -0.303 OA
BRANCH  10  11
ATOM     11  C9  <0> d          -4.012  -0.454  -2.429  0.00  0.00     0.358 C 
ATOM     12  N10 <0> d          -4.229   0.872  -2.542  0.00  0.00    -0.346 N 
ATOM     13  H25 <0> d          -3.934   1.473  -1.840  0.00  0.00     0.161 HD
ATOM     14  H26 <0> d          -4.680   1.224  -3.325  0.00  0.00     0.161 HD
ATOM     15  O11 <0> d          -4.381  -1.207  -3.308  0.00  0.00    -0.239 OA
ENDBRANCH  10  11
ENDBRANCH   9  10
ENDBRANCH   1   9
BRANCH   1  16
ATOM     16  C12 <0> d          -2.366  -4.245   0.126  0.00  0.00    -0.050 A 
ATOM     17  C17 <0> d          -2.944  -4.896   1.200  0.00  0.00     0.007 A 
ATOM     18  C16 <0> d          -2.858  -6.271   1.303  0.00  0.00     0.001 A 
ATOM     19  C15 <0> d          -2.186  -6.996   0.337  0.00  0.00     0.000 A 
ATOM     20  C14 <0> d          -1.603  -6.345  -0.735  0.00  0.00     0.001 A 
ATOM     21  C13 <0> d          -1.694  -4.970  -0.840  0.00  0.00     0.007 A 
ENDBRANCH   1  16
TORSDOF 7
