REMARK  2 active torsions:
REMARK  status: ('A' for Active; 'I' for Inactive)
REMARK    1  A    between atoms: C2_2  and  S4_4 
REMARK    2  A    between atoms: S4_4  and  C5_5 
ROOT
ATOM      1  C5  ZIN AC000      -0.065  -2.460  -0.110  0.00  0.00     0.064 C 
ATOM      2  C7  ZIN AC000       1.287  -2.722   0.557  0.00  0.00     0.051 C 
ATOM      3  C8  ZIN AC000       2.382  -2.567  -0.482  0.00  0.00    -0.067 C 
ATOM      4  C9  ZIN AC000       3.432  -1.809  -0.167  0.00  0.00     0.053 C 
ATOM      5  C10 ZIN AC000       4.527  -1.637  -1.127  0.00  0.00     0.149 C 
ATOM      6  O11 ZIN AC000       5.290  -0.696  -1.064  0.00  0.00    -0.293 OA
ATOM      7  C12 ZIN AC000       4.656  -2.697  -2.203  0.00  0.00     0.084 C 
ATOM      8  C13 ZIN AC000       3.274  -2.883  -2.829  0.00  0.00     0.022 C 
ATOM      9  C14 ZIN AC000       2.236  -3.276  -1.793  0.00  0.00    -0.016 C 
ATOM     10  C15 ZIN AC000       2.367  -4.779  -1.537  0.00  0.00     0.020 C 
ATOM     11  C16 ZIN AC000       0.835  -3.032  -2.368  0.00  0.00     0.004 C 
ATOM     12  C18 ZIN AC000       0.667  -3.854  -3.643  0.00  0.00     0.007 C 
ATOM     13  C19 ZIN AC000      -0.759  -3.747  -4.205  0.00  0.00     0.013 C 
ATOM     14  C20 ZIN AC000      -1.706  -4.208  -3.114  0.00  0.00    -0.008 C 
ATOM     15  C21 ZIN AC000      -1.295  -5.599  -2.627  0.00  0.00     0.019 C 
ATOM     16  C22 ZIN AC000      -1.587  -3.191  -1.945  0.00  0.00     0.002 C 
ATOM     17  C24 ZIN AC000      -2.787  -3.575  -1.072  0.00  0.00     0.009 C 
ATOM     18  C25 ZIN AC000      -3.908  -3.840  -2.117  0.00  0.00     0.040 C 
ATOM     19  C26 ZIN AC000      -3.189  -4.196  -3.435  0.00  0.00     0.079 C 
ATOM     20  C27 ZIN AC000      -3.521  -3.149  -4.512  0.00  0.00     0.049 C 
ATOM     21  C28 ZIN AC000      -4.697  -3.832  -5.251  0.00  0.00     0.114 C 
ATOM     22  C29 ZIN AC000      -4.501  -5.306  -4.967  0.00  0.00     0.259 C 
ATOM     23  O30 ZIN AC000      -5.033  -6.205  -5.575  0.00  0.00    -0.265 OA
ATOM     24  O31 ZIN AC000      -3.650  -5.469  -3.944  0.00  0.00    -0.309 OA
ATOM     25  C32 ZIN AC000      -0.223  -3.394  -1.313  0.00  0.00     0.010 C 
ENDROOT
BRANCH   1  26
ATOM     26  S4  ZIN AC000      -0.142  -0.739  -0.664  0.00  0.00    -0.087 SA
BRANCH  26  27
ATOM     27  C2  ZIN AC000      -0.088   0.063   0.847  0.00  0.00     0.182 C 
ATOM     28  C1  ZIN AC000      -0.129   1.569   0.903  0.00  0.00     0.104 C 
ATOM     29  O3  ZIN AC000      -0.018  -0.580   1.873  0.00  0.00    -0.286 OA
ENDBRANCH  26  27
ENDBRANCH   1  26
TORSDOF 2
