REMARK  3 active torsions:
REMARK  status: ('A' for Active; 'I' for Inactive)
REMARK    1  A    between atoms: C2_2  and  C3_3 
REMARK    2  A    between atoms: C2_2  and  C12_12 
REMARK    3  A    between atoms: C6_6  and  C7_7 
ROOT
ATOM      1  C12 ZIN AC000       1.296  -0.728  -0.014  0.00  0.00    -0.019 A 
ATOM      2  C13 ZIN AC000       1.764  -1.353   1.137  0.00  0.00     0.021 A 
ATOM      3  C14 ZIN AC000       2.973  -2.033   1.126  0.00  0.00    -0.042 A 
ATOM      4  C15 ZIN AC000       3.714  -2.094  -0.034  0.00  0.00    -0.043 A 
ATOM      5  C16 ZIN AC000       3.251  -1.467  -1.186  0.00  0.00     0.016 A 
ATOM      6  C17 ZIN AC000       2.050  -0.793  -1.185  0.00  0.00    -0.050 A 
ATOM      7  C18 ZIN AC000       1.559  -0.119  -2.441  0.00  0.00     0.049 C 
ATOM      8  C19 ZIN AC000       5.027  -2.829  -0.119  0.00  0.00    -0.020 C 
ATOM      9  C20 ZIN AC000       4.808  -4.171  -0.821  0.00  0.00     0.020 C 
ATOM     10  C21 ZIN AC000       6.022  -1.993  -0.926  0.00  0.00     0.020 C 
ATOM     11  C22 ZIN AC000       5.595  -3.078   1.277  0.00  0.00     0.015 C 
ATOM     12  C23 ZIN AC000       4.502  -3.725   2.136  0.00  0.00     0.015 C 
ATOM     13  C24 ZIN AC000       3.423  -2.680   2.410  0.00  0.00    -0.020 C 
ATOM     14  C25 ZIN AC000       3.985  -1.607   3.345  0.00  0.00     0.020 C 
ATOM     15  C26 ZIN AC000       2.225  -3.355   3.081  0.00  0.00     0.020 C 
ENDROOT
BRANCH   1  16
ATOM     16  C2  ZIN AC000       0.002  -0.004   0.002  0.00  0.00    -0.025 C 
ATOM     17  C1  ZIN AC000      -0.016   1.335   0.009  0.00  0.00     0.025 C 
BRANCH  16  18
ATOM     18  C3  ZIN AC000      -1.271  -0.762   0.010  0.00  0.00    -0.026 A 
ATOM     19  C11 ZIN AC000      -2.142  -0.674  -1.077  0.00  0.00     0.013 A 
ATOM     20  C10 ZIN AC000      -3.318  -1.379  -1.073  0.00  0.00     0.019 A 
ATOM     21  C6  ZIN AC000      -3.650  -2.178   0.026  0.00  0.00     0.040 A 
ATOM     22  C5  ZIN AC000      -2.778  -2.261   1.117  0.00  0.00     0.019 A 
ATOM     23  C4  ZIN AC000      -1.600  -1.559   1.108  0.00  0.00     0.013 A 
BRANCH  21  24
ATOM     24  C7  ZIN AC000      -4.916  -2.932   0.034  0.00  0.00     0.209 C 
ATOM     25  O8  ZIN AC000      -5.206  -3.630   0.996  0.00  0.00    -0.644 OA
ATOM     26  O9  ZIN AC000      -5.678  -2.858  -0.920  0.00  0.00    -0.644 OA
ENDBRANCH  21  24
ENDBRANCH  16  18
ENDBRANCH   1  16
TORSDOF 3
