REMARK  5 active torsions:
REMARK  status: ('A' for Active; 'I' for Inactive)
REMARK    1  A    between atoms: N1_1  and  C2_2 
REMARK    2  A    between atoms: C2_2  and  C3_3 
REMARK    3  A    between atoms: C3_3  and  C5_5 
REMARK    4  A    between atoms: C5_5  and  C6_6 
REMARK    5  A    between atoms: C6_6  and  C7_7 
ROOT
ATOM      1  C3  <0> d          -1.412  -0.526   0.013  0.00  0.00     0.155 C 
ATOM      2  O4  <0> d          -2.340   0.246   0.026  0.00  0.00    -0.296 OA
ENDROOT
BRANCH   1   3
ATOM      3  C2  <0> d           0.002  -0.004   0.002  0.00  0.00     0.344 C 
BRANCH   3   4
ATOM      4  N1  <0> d          -0.018   1.465   0.010  0.00  0.00     0.085 N 
ATOM      5  H10 <0> d           0.919   1.839   0.003  0.00  0.00     0.313 HD
ATOM      6  H11 <0> d          -0.556   1.823  -0.764  0.00  0.00     0.313 HD
ENDBRANCH   3   4
ENDBRANCH   1   3
BRANCH   1   7
ATOM      7  C5  <0> d          -1.667  -2.011   0.007  0.00  0.00     0.090 C 
BRANCH   7   8
ATOM      8  C6  <0> d          -3.175  -2.269   0.020  0.00  0.00     0.120 C 
BRANCH   8   9
ATOM      9  C7  <0> d          -3.430  -3.755   0.015  0.00  0.00     0.172 C 
ATOM     10  O8  <0> d          -2.493  -4.534   0.002  0.00  0.00    -0.648 OA
ATOM     11  O9  <0> d          -4.574  -4.176   0.023  0.00  0.00    -0.648 OA
ENDBRANCH   8   9
ENDBRANCH   7   8
ENDBRANCH   1   7
TORSDOF 5
